{
   "completed_at" : "20230909T180555Z",
   "completed_status" : "Success",
   "created_at" : "20230908T100907Z",
   "current_step" : 1,
   "eplusout_err" : "Program Version,EnergyPlus, Version 23.1.0-87ed9199d4, YMD=2023.09.09 10:58,\n   ************* Beginning Zone Sizing Calculations\n   ** Warning ** Weather file location will be used rather than entered (IDF) Location object.\n   **   ~~~   ** ..Location object=TAMPA-MACDILL AFB_FL_USA\n   **   ~~~   ** ..Weather File Location=SINGAPORE - SGP IWEC Data WMO#=486980\n   **   ~~~   ** ..due to location differences, Latitude difference=[26.48] degrees, Longitude difference=[186.50] degrees.\n   **   ~~~   ** ..Time Zone difference=[13.0] hour(s), Elevation difference=[100.00] percent, [8.00] meters.\n   ** Warning ** ProcessScheduleInput: Schedule:Day:Interval=\"COLLEGE HVACOPERATIONSCHD DEFAULT\", Blank Schedule Type Limits Name input -- will not be validated.\n   ** Warning ** ProcessScheduleInput: Schedule:Day:Interval=\"COLLEGE HVACOPERATIONSCHD DEFAULT|WKND|HOL DAY\", Blank Schedule Type Limits Name input -- will not be validated.\n   ** Warning ** ProcessScheduleInput: Schedule:Day:Interval=\"COLLEGE HVACOPERATIONSCHD SUMMER DESIGN DAY\", Blank Schedule Type Limits Name input -- will not be validated.\n   ** Warning ** ProcessScheduleInput: Schedule:Day:Interval=\"COLLEGE HVACOPERATIONSCHD WINTER DESIGN DAY\", Blank Schedule Type Limits Name input -- will not be validated.\n   ** Warning ** ProcessScheduleInput: Schedule:Day:Interval=\"COLLEGE HVACOPERATIONSCHD WKDY|SMRDSN|WNTRDSN DAY\", Blank Schedule Type Limits Name input -- will not be validated.\n   ** Warning ** ProcessScheduleInput: Schedule:Day:Interval=\"ECONOMIZER MAX OA FRACTION 70 PCT DEFAULT\", Blank Schedule Type Limits Name input -- will not be validated.\n   ** Warning ** ProcessScheduleInput: Schedule:Year=\"COLLEGE HVACOPERATIONSCHD\", Blank Schedule Type Limits Name input -- will not be validated.\n   ** Warning ** ProcessScheduleInput: Schedule:Constant=\"ALWAYS OFF DISCRETE\", Blank Schedule Type Limits Name input -- will not be validated.\n   ** Warning ** ProcessScheduleInput: Schedule:Constant=\"ALWAYS ON CONTINUOUS\", Blank Schedule Type Limits Name input -- will not be validated.\n   ** Warning ** GetSurfaceData: InterZone Surface Azimuths do not match as expected.\n   **   ~~~   **   Azimuth=90.0, Tilt=90.0, in Surface=SURFACE 226, Zone=CB_CORRIDOR_F1 ZN\n   **   ~~~   **   Azimuth=90.0, Tilt=90.0, in Surface=SURFACE 1138, Zone=CB_ENTRANCE_LOBBY_F1 ZN\n   **   ~~~   ** ..surface class of first surface=Wall\n   **   ~~~   ** ..surface class of second surface=Wall\n   ** Warning ** CheckUsedConstructions: There are 33 nominally unused constructions in input.\n   **   ~~~   ** For explicit details on each unused construction, use Output:Diagnostics,DisplayExtraWarnings;\n   ** Warning ** GetInternalHeatGains: People=\"COLLEGE - LOUNGE PEOPLE\" has comfort related schedules but no thermal comfort model selected.\n   **   ~~~   ** If schedules are specified for air velocity, clothing insulation, and/or work efficiency but no thermal comfort\n   **   ~~~   ** thermal comfort model is selected, the schedules will be listed as unused schedules in the .err file.\n   **   ~~~   ** To avoid these errors, select a valid thermal comfort model or eliminate these schedules in the PEOPLE input.\n   ** Warning ** GetInternalHeatGains: People=\"COLLEGE - CLASSROOM PEOPLE\" has comfort related schedules but no thermal comfort model selected.\n   **   ~~~   ** If schedules are specified for air velocity, clothing insulation, and/or work efficiency but no thermal comfort\n   **   ~~~   ** thermal comfort model is selected, the schedules will be listed as unused schedules in the .err file.\n   **   ~~~   ** To avoid these errors, select a valid thermal comfort model or eliminate these schedules in the PEOPLE input.\n   ** Warning ** GetInternalHeatGains: People=\"COLLEGE - CLASSROOM PEOPLE\" has comfort related schedules but no thermal comfort model selected.\n   **   ~~~   ** If schedules are specified for air velocity, clothing insulation, and/or work efficiency but no thermal comfort\n   **   ~~~   ** thermal comfort model is selected, the schedules will be listed as unused schedules in the .err file.\n   **   ~~~   ** To avoid these errors, select a valid thermal comfort model or eliminate these schedules in the PEOPLE input.\n   ** Warning ** GetInternalHeatGains: People=\"COLLEGE - CLASSROOM PEOPLE\" has comfort related schedules but no thermal comfort model selected.\n   **   ~~~   ** If schedules are specified for air velocity, clothing insulation, and/or work efficiency but no thermal comfort\n   **   ~~~   ** thermal comfort model is selected, the schedules will be listed as unused schedules in the .err file.\n   **   ~~~   ** To avoid these errors, select a valid thermal comfort model or eliminate these schedules in the PEOPLE input.\n   ** Warning ** GetInternalHeatGains: People=\"COLLEGE - CLASSROOM PEOPLE\" has comfort related schedules but no thermal comfort model selected.\n   **   ~~~   ** If schedules are specified for air velocity, clothing insulation, and/or work efficiency but no thermal comfort\n   **   ~~~   ** thermal comfort model is selected, the schedules will be listed as unused schedules in the .err file.\n   **   ~~~   ** To avoid these errors, select a valid thermal comfort model or eliminate these schedules in the PEOPLE input.\n   ** Warning ** GetInternalHeatGains: People=\"COLLEGE - CLASSROOM PEOPLE\" has comfort related schedules but no thermal comfort model selected.\n   **   ~~~   ** If schedules are specified for air velocity, clothing insulation, and/or work efficiency but no thermal comfort\n   **   ~~~   ** thermal comfort model is selected, the schedules will be listed as unused schedules in the .err file.\n   **   ~~~   ** To avoid these errors, select a valid thermal comfort model or eliminate these schedules in the PEOPLE input.\n   ** Warning ** GetInternalHeatGains: People=\"COLLEGE - CLASSROOM PEOPLE\" has comfort related schedules but no thermal comfort model selected.\n   **   ~~~   ** If schedules are specified for air velocity, clothing insulation, and/or work efficiency but no thermal comfort\n   **   ~~~   ** thermal comfort model is selected, the schedules will be listed as unused schedules in the .err file.\n   **   ~~~   ** To avoid these errors, select a valid thermal comfort model or eliminate these schedules in the PEOPLE input.\n   ** Warning ** GetInternalHeatGains: People=\"COLLEGE - CLASSROOM PEOPLE\" has comfort related schedules but no thermal comfort model selected.\n   **   ~~~   ** If schedules are specified for air velocity, clothing insulation, and/or work efficiency but no thermal comfort\n   **   ~~~   ** thermal comfort model is selected, the schedules will be listed as unused schedules in the .err file.\n   **   ~~~   ** To avoid these errors, select a valid thermal comfort model or eliminate these schedules in the PEOPLE input.\n   ** Warning ** GetInternalHeatGains: People=\"COLLEGE - CLASSROOM PEOPLE\" has comfort related schedules but no thermal comfort model selected.\n   **   ~~~   ** If schedules are specified for air velocity, clothing insulation, and/or work efficiency but no thermal comfort\n   **   ~~~   ** thermal comfort model is selected, the schedules will be listed as unused schedules in the .err file.\n   **   ~~~   ** To avoid these errors, select a valid thermal comfort model or eliminate these schedules in the PEOPLE input.\n   ** Warning ** GetInternalHeatGains: People=\"COLLEGE - CLASSROOM PEOPLE\" has comfort related schedules but no thermal comfort model selected.\n   **   ~~~   ** If schedules are specified for air velocity, clothing insulation, and/or work efficiency but no thermal comfort\n   **   ~~~   ** thermal comfort model is selected, the schedules will be listed as unused schedules in the .err file.\n   **   ~~~   ** To avoid these errors, select a valid thermal comfort model or eliminate these schedules in the PEOPLE input.\n   ** Warning ** GetInternalHeatGains: People=\"COLLEGE - CLASSROOM PEOPLE\" has comfort related schedules but no thermal comfort model selected.\n   **   ~~~   ** If schedules are specified for air velocity, clothing insulation, and/or work efficiency but no thermal comfort\n   **   ~~~   ** thermal comfort model is selected, the schedules will be listed as unused schedules in the .err file.\n   **   ~~~   ** To avoid these errors, select a valid thermal comfort model or eliminate these schedules in the PEOPLE input.\n   ** Warning ** GetInternalHeatGains: People=\"COLLEGE - CLASSROOM PEOPLE\" has comfort related schedules but no thermal comfort model selected.\n   **   ~~~   ** If schedules are specified for air velocity, clothing insulation, and/or work efficiency but no thermal comfort\n   **   ~~~   ** thermal comfort model is selected, the schedules will be listed as unused schedules in the .err file.\n   **   ~~~   ** To avoid these errors, select a valid thermal comfort model or eliminate these schedules in the PEOPLE input.\n   ** Warning ** GetInternalHeatGains: People=\"COLLEGE - CLASSROOM PEOPLE\" has comfort related schedules but no thermal comfort model selected.\n   **   ~~~   ** If schedules are specified for air velocity, clothing insulation, and/or work efficiency but no thermal comfort\n   **   ~~~   ** thermal comfort model is selected, the schedules will be listed as unused schedules in the .err file.\n   **   ~~~   ** To avoid these errors, select a valid thermal comfort model or eliminate these schedules in the PEOPLE input.\n   ** Warning ** GetInternalHeatGains: People=\"COLLEGE - CLASSROOM PEOPLE\" has comfort related schedules but no thermal comfort model selected.\n   **   ~~~   ** If schedules are specified for air velocity, clothing insulation, and/or work efficiency but no thermal comfort\n   **   ~~~   ** thermal comfort model is selected, the schedules will be listed as unused schedules in the .err file.\n   **   ~~~   ** To avoid these errors, select a valid thermal comfort model or eliminate these schedules in the PEOPLE input.\n   ** Warning ** GetInternalHeatGains: People=\"COLLEGE - CLASSROOM PEOPLE\" has comfort related schedules but no thermal comfort model selected.\n   **   ~~~   ** If schedules are specified for air velocity, clothing insulation, and/or work efficiency but no thermal comfort\n   **   ~~~   ** thermal comfort model is selected, the schedules will be listed as unused schedules in the .err file.\n   **   ~~~   ** To avoid these errors, select a valid thermal comfort model or eliminate these schedules in the PEOPLE input.\n   ** Warning ** GetInternalHeatGains: People=\"COLLEGE - CLASSROOM PEOPLE\" has comfort related schedules but no thermal comfort model selected.\n   **   ~~~   ** If schedules are specified for air velocity, clothing insulation, and/or work efficiency but no thermal comfort\n   **   ~~~   ** thermal comfort model is selected, the schedules will be listed as unused schedules in the .err file.\n   **   ~~~   ** To avoid these errors, select a valid thermal comfort model or eliminate these schedules in the PEOPLE input.\n   ** Warning ** GetInternalHeatGains: People=\"COLLEGE - CLASSROOM PEOPLE\" has comfort related schedules but no thermal comfort model selected.\n   **   ~~~   ** If schedules are specified for air velocity, clothing insulation, and/or work efficiency but no thermal comfort\n   **   ~~~   ** thermal comfort model is selected, the schedules will be listed as unused schedules in the .err file.\n   **   ~~~   ** To avoid these errors, select a valid thermal comfort model or eliminate these schedules in the PEOPLE input.\n   ** Warning ** GetInternalHeatGains: People=\"COLLEGE - CLASSROOM PEOPLE\" has comfort related schedules but no thermal comfort model selected.\n   **   ~~~   ** If schedules are specified for air velocity, clothing insulation, and/or work efficiency but no thermal comfort\n   **   ~~~   ** thermal comfort model is selected, the schedules will be listed as unused schedules in the .err file.\n   **   ~~~   ** To avoid these errors, select a valid thermal comfort model or eliminate these schedules in the PEOPLE input.\n   ** Warning ** GetInternalHeatGains: People=\"COLLEGE - CLASSROOM PEOPLE\" has comfort related schedules but no thermal comfort model selected.\n   **   ~~~   ** If schedules are specified for air velocity, clothing insulation, and/or work efficiency but no thermal comfort\n   **   ~~~   ** thermal comfort model is selected, the schedules will be listed as unused schedules in the .err file.\n   **   ~~~   ** To avoid these errors, select a valid thermal comfort model or eliminate these schedules in the PEOPLE input.\n   ** Warning ** GetInternalHeatGains: People=\"COLLEGE - CLASSROOM PEOPLE\" has comfort related schedules but no thermal comfort model selected.\n   **   ~~~   ** If schedules are specified for air velocity, clothing insulation, and/or work efficiency but no thermal comfort\n   **   ~~~   ** thermal comfort model is selected, the schedules will be listed as unused schedules in the .err file.\n   **   ~~~   ** To avoid these errors, select a valid thermal comfort model or eliminate these schedules in the PEOPLE input.\n   ** Warning ** GetInternalHeatGains: People=\"COLLEGE - CLASSROOM PEOPLE\" has comfort related schedules but no thermal comfort model selected.\n   **   ~~~   ** If schedules are specified for air velocity, clothing insulation, and/or work efficiency but no thermal comfort\n   **   ~~~   ** thermal comfort model is selected, the schedules will be listed as unused schedules in the .err file.\n   **   ~~~   ** To avoid these errors, select a valid thermal comfort model or eliminate these schedules in the PEOPLE input.\n   ** Warning ** GetInternalHeatGains: People=\"COLLEGE - CLASSROOM PEOPLE\" has comfort related schedules but no thermal comfort model selected.\n   **   ~~~   ** If schedules are specified for air velocity, clothing insulation, and/or work efficiency but no thermal comfort\n   **   ~~~   ** thermal comfort model is selected, the schedules will be listed as unused schedules in the .err file.\n   **   ~~~   ** To avoid these errors, select a valid thermal comfort model or eliminate these schedules in the PEOPLE input.\n   ** Warning ** GetInternalHeatGains: People=\"COLLEGE - CLASSROOM PEOPLE\" has comfort related schedules but no thermal comfort model selected.\n   **   ~~~   ** If schedules are specified for air velocity, clothing insulation, and/or work efficiency but no thermal comfort\n   **   ~~~   ** thermal comfort model is selected, the schedules will be listed as unused schedules in the .err file.\n   **   ~~~   ** To avoid these errors, select a valid thermal comfort model or eliminate these schedules in the PEOPLE input.\n   ** Warning ** GetInternalHeatGains: People=\"COLLEGE - CLASSROOM PEOPLE\" has comfort related schedules but no thermal comfort model selected.\n   **   ~~~   ** If schedules are specified for air velocity, clothing insulation, and/or work efficiency but no thermal comfort\n   **   ~~~   ** thermal comfort model is selected, the schedules will be listed as unused schedules in the .err file.\n   **   ~~~   ** To avoid these errors, select a valid thermal comfort model or eliminate these schedules in the PEOPLE input.\n   ** Warning ** GetInternalHeatGains: People=\"COLLEGE - CONFERENCE PEOPLE\" has comfort related schedules but no thermal comfort model selected.\n   **   ~~~   ** If schedules are specified for air velocity, clothing insulation, and/or work efficiency but no thermal comfort\n   **   ~~~   ** thermal comfort model is selected, the schedules will be listed as unused schedules in the .err file.\n   **   ~~~   ** To avoid these errors, select a valid thermal comfort model or eliminate these schedules in the PEOPLE input.\n   ** Warning ** GetInternalHeatGains: People=\"COLLEGE - CONFERENCE PEOPLE\" has comfort related schedules but no thermal comfort model selected.\n   **   ~~~   ** If schedules are specified for air velocity, clothing insulation, and/or work efficiency but no thermal comfort\n   **   ~~~   ** thermal comfort model is selected, the schedules will be listed as unused schedules in the .err file.\n   **   ~~~   ** To avoid these errors, select a valid thermal comfort model or eliminate these schedules in the PEOPLE input.\n   ** Warning ** GetInternalHeatGains: People=\"COLLEGE - CONFERENCE PEOPLE\" has comfort related schedules but no thermal comfort model selected.\n   **   ~~~   ** If schedules are specified for air velocity, clothing insulation, and/or work efficiency but no thermal comfort\n   **   ~~~   ** thermal comfort model is selected, the schedules will be listed as unused schedules in the .err file.\n   **   ~~~   ** To avoid these errors, select a valid thermal comfort model or eliminate these schedules in the PEOPLE input.\n   ** Warning ** GetInternalHeatGains: People=\"COLLEGE - CONFERENCE PEOPLE\" has comfort related schedules but no thermal comfort model selected.\n   **   ~~~   ** If schedules are specified for air velocity, clothing insulation, and/or work efficiency but no thermal comfort\n   **   ~~~   ** thermal comfort model is selected, the schedules will be listed as unused schedules in the .err file.\n   **   ~~~   ** To avoid these errors, select a valid thermal comfort model or eliminate these schedules in the PEOPLE input.\n   ** Warning ** GetInternalHeatGains: People=\"COLLEGE - ENTRANCE LOBBY PEOPLE\" has comfort related schedules but no thermal comfort model selected.\n   **   ~~~   ** If schedules are specified for air velocity, clothing insulation, and/or work efficiency but no thermal comfort\n   **   ~~~   ** thermal comfort model is selected, the schedules will be listed as unused schedules in the .err file.\n   **   ~~~   ** To avoid these errors, select a valid thermal comfort model or eliminate these schedules in the PEOPLE input.\n   ** Warning ** GetInternalHeatGains: People=\"COLLEGE - OFFICE PEOPLE\" has comfort related schedules but no thermal comfort model selected.\n   **   ~~~   ** If schedules are specified for air velocity, clothing insulation, and/or work efficiency but no thermal comfort\n   **   ~~~   ** thermal comfort model is selected, the schedules will be listed as unused schedules in the .err file.\n   **   ~~~   ** To avoid these errors, select a valid thermal comfort model or eliminate these schedules in the PEOPLE input.\n   ** Warning ** GetInternalHeatGains: People=\"COLLEGE - OFFICE PEOPLE\" has comfort related schedules but no thermal comfort model selected.\n   **   ~~~   ** If schedules are specified for air velocity, clothing insulation, and/or work efficiency but no thermal comfort\n   **   ~~~   ** thermal comfort model is selected, the schedules will be listed as unused schedules in the .err file.\n   **   ~~~   ** To avoid these errors, select a valid thermal comfort model or eliminate these schedules in the PEOPLE input.\n   ** Warning ** GetInternalHeatGains: People=\"COLLEGE - OFFICE PEOPLE\" has comfort related schedules but no thermal comfort model selected.\n   **   ~~~   ** If schedules are specified for air velocity, clothing insulation, and/or work efficiency but no thermal comfort\n   **   ~~~   ** thermal comfort model is selected, the schedules will be listed as unused schedules in the .err file.\n   **   ~~~   ** To avoid these errors, select a valid thermal comfort model or eliminate these schedules in the PEOPLE input.\n   ** Warning ** GetInternalHeatGains: People=\"COLLEGE - OFFICE PEOPLE\" has comfort related schedules but no thermal comfort model selected.\n   **   ~~~   ** If schedules are specified for air velocity, clothing insulation, and/or work efficiency but no thermal comfort\n   **   ~~~   ** thermal comfort model is selected, the schedules will be listed as unused schedules in the .err file.\n   **   ~~~   ** To avoid these errors, select a valid thermal comfort model or eliminate these schedules in the PEOPLE input.\n   ** Warning ** GetInternalHeatGains: People=\"COLLEGE - OFFICE PEOPLE\" has comfort related schedules but no thermal comfort model selected.\n   **   ~~~   ** If schedules are specified for air velocity, clothing insulation, and/or work efficiency but no thermal comfort\n   **   ~~~   ** thermal comfort model is selected, the schedules will be listed as unused schedules in the .err file.\n   **   ~~~   ** To avoid these errors, select a valid thermal comfort model or eliminate these schedules in the PEOPLE input.\n   ** Warning ** GetInternalHeatGains: People=\"COLLEGE - OFFICE PEOPLE\" has comfort related schedules but no thermal comfort model selected.\n   **   ~~~   ** If schedules are specified for air velocity, clothing insulation, and/or work efficiency but no thermal comfort\n   **   ~~~   ** thermal comfort model is selected, the schedules will be listed as unused schedules in the .err file.\n   **   ~~~   ** To avoid these errors, select a valid thermal comfort model or eliminate these schedules in the PEOPLE input.\n   ** Warning ** GetInternalHeatGains: People=\"COLLEGE - OFFICE PEOPLE\" has comfort related schedules but no thermal comfort model selected.\n   **   ~~~   ** If schedules are specified for air velocity, clothing insulation, and/or work efficiency but no thermal comfort\n   **   ~~~   ** thermal comfort model is selected, the schedules will be listed as unused schedules in the .err file.\n   **   ~~~   ** To avoid these errors, select a valid thermal comfort model or eliminate these schedules in the PEOPLE input.\n   ** Warning ** GetInternalHeatGains: People=\"COLLEGE - OFFICE PEOPLE\" has comfort related schedules but no thermal comfort model selected.\n   **   ~~~   ** If schedules are specified for air velocity, clothing insulation, and/or work efficiency but no thermal comfort\n   **   ~~~   ** thermal comfort model is selected, the schedules will be listed as unused schedules in the .err file.\n   **   ~~~   ** To avoid these errors, select a valid thermal comfort model or eliminate these schedules in the PEOPLE input.\n   ** Warning ** GetInternalHeatGains: People=\"COLLEGE - OFFICE PEOPLE\" has comfort related schedules but no thermal comfort model selected.\n   **   ~~~   ** If schedules are specified for air velocity, clothing insulation, and/or work efficiency but no thermal comfort\n   **   ~~~   ** thermal comfort model is selected, the schedules will be listed as unused schedules in the .err file.\n   **   ~~~   ** To avoid these errors, select a valid thermal comfort model or eliminate these schedules in the PEOPLE input.\n   ** Warning ** GetInternalHeatGains: People=\"COLLEGE - OFFICE PEOPLE\" has comfort related schedules but no thermal comfort model selected.\n   **   ~~~   ** If schedules are specified for air velocity, clothing insulation, and/or work efficiency but no thermal comfort\n   **   ~~~   ** thermal comfort model is selected, the schedules will be listed as unused schedules in the .err file.\n   **   ~~~   ** To avoid these errors, select a valid thermal comfort model or eliminate these schedules in the PEOPLE input.\n   ** Warning ** GetInternalHeatGains: People=\"COLLEGE - OFFICE PEOPLE\" has comfort related schedules but no thermal comfort model selected.\n   **   ~~~   ** If schedules are specified for air velocity, clothing insulation, and/or work efficiency but no thermal comfort\n   **   ~~~   ** thermal comfort model is selected, the schedules will be listed as unused schedules in the .err file.\n   **   ~~~   ** To avoid these errors, select a valid thermal comfort model or eliminate these schedules in the PEOPLE input.\n   ** Warning ** GetInternalHeatGains: People=\"COLLEGE - OFFICE PEOPLE\" has comfort related schedules but no thermal comfort model selected.\n   **   ~~~   ** If schedules are specified for air velocity, clothing insulation, and/or work efficiency but no thermal comfort\n   **   ~~~   ** thermal comfort model is selected, the schedules will be listed as unused schedules in the .err file.\n   **   ~~~   ** To avoid these errors, select a valid thermal comfort model or eliminate these schedules in the PEOPLE input.\n   ** Warning ** GetInternalHeatGains: People=\"COLLEGE - OFFICE PEOPLE\" has comfort related schedules but no thermal comfort model selected.\n   **   ~~~   ** If schedules are specified for air velocity, clothing insulation, and/or work efficiency but no thermal comfort\n   **   ~~~   ** thermal comfort model is selected, the schedules will be listed as unused schedules in the .err file.\n   **   ~~~   ** To avoid these errors, select a valid thermal comfort model or eliminate these schedules in the PEOPLE input.\n   ** Warning ** GetInternalHeatGains: People=\"COLLEGE - OFFICE PEOPLE\" has comfort related schedules but no thermal comfort model selected.\n   **   ~~~   ** If schedules are specified for air velocity, clothing insulation, and/or work efficiency but no thermal comfort\n   **   ~~~   ** thermal comfort model is selected, the schedules will be listed as unused schedules in the .err file.\n   **   ~~~   ** To avoid these errors, select a valid thermal comfort model or eliminate these schedules in the PEOPLE input.\n   ** Warning ** GetInternalHeatGains: People=\"COLLEGE - OFFICE PEOPLE\" has comfort related schedules but no thermal comfort model selected.\n   **   ~~~   ** If schedules are specified for air velocity, clothing insulation, and/or work efficiency but no thermal comfort\n   **   ~~~   ** thermal comfort model is selected, the schedules will be listed as unused schedules in the .err file.\n   **   ~~~   ** To avoid these errors, select a valid thermal comfort model or eliminate these schedules in the PEOPLE input.\n   ** Warning ** GetInternalHeatGains: People=\"COLLEGE - OFFICE PEOPLE\" has comfort related schedules but no thermal comfort model selected.\n   **   ~~~   ** If schedules are specified for air velocity, clothing insulation, and/or work efficiency but no thermal comfort\n   **   ~~~   ** thermal comfort model is selected, the schedules will be listed as unused schedules in the .err file.\n   **   ~~~   ** To avoid these errors, select a valid thermal comfort model or eliminate these schedules in the PEOPLE input.\n   ** Warning ** GetInternalHeatGains: People=\"COLLEGE - OFFICE PEOPLE\" has comfort related schedules but no thermal comfort model selected.\n   **   ~~~   ** If schedules are specified for air velocity, clothing insulation, and/or work efficiency but no thermal comfort\n   **   ~~~   ** thermal comfort model is selected, the schedules will be listed as unused schedules in the .err file.\n   **   ~~~   ** To avoid these errors, select a valid thermal comfort model or eliminate these schedules in the PEOPLE input.\n   ** Warning ** GetInternalHeatGains: People=\"COLLEGE - OFFICE PEOPLE\" has comfort related schedules but no thermal comfort model selected.\n   **   ~~~   ** If schedules are specified for air velocity, clothing insulation, and/or work efficiency but no thermal comfort\n   **   ~~~   ** thermal comfort model is selected, the schedules will be listed as unused schedules in the .err file.\n   **   ~~~   ** To avoid these errors, select a valid thermal comfort model or eliminate these schedules in the PEOPLE input.\n   ** Warning ** GetInternalHeatGains: People=\"COLLEGE - OFFICE PEOPLE\" has comfort related schedules but no thermal comfort model selected.\n   **   ~~~   ** If schedules are specified for air velocity, clothing insulation, and/or work efficiency but no thermal comfort\n   **   ~~~   ** thermal comfort model is selected, the schedules will be listed as unused schedules in the .err file.\n   **   ~~~   ** To avoid these errors, select a valid thermal comfort model or eliminate these schedules in the PEOPLE input.\n   ** Warning ** GetInternalHeatGains: People=\"COLLEGE - OFFICE PEOPLE\" has comfort related schedules but no thermal comfort model selected.\n   **   ~~~   ** If schedules are specified for air velocity, clothing insulation, and/or work efficiency but no thermal comfort\n   **   ~~~   ** thermal comfort model is selected, the schedules will be listed as unused schedules in the .err file.\n   **   ~~~   ** To avoid these errors, select a valid thermal comfort model or eliminate these schedules in the PEOPLE input.\n   ** Warning ** GetInternalHeatGains: People=\"COLLEGE - OFFICE PEOPLE\" has comfort related schedules but no thermal comfort model selected.\n   **   ~~~   ** If schedules are specified for air velocity, clothing insulation, and/or work efficiency but no thermal comfort\n   **   ~~~   ** thermal comfort model is selected, the schedules will be listed as unused schedules in the .err file.\n   **   ~~~   ** To avoid these errors, select a valid thermal comfort model or eliminate these schedules in the PEOPLE input.\n   ** Warning ** GetInternalHeatGains: People=\"COLLEGE - OFFICE PEOPLE\" has comfort related schedules but no thermal comfort model selected.\n   **   ~~~   ** If schedules are specified for air velocity, clothing insulation, and/or work efficiency but no thermal comfort\n   **   ~~~   ** thermal comfort model is selected, the schedules will be listed as unused schedules in the .err file.\n   **   ~~~   ** To avoid these errors, select a valid thermal comfort model or eliminate these schedules in the PEOPLE input.\n   ** Warning ** GetInternalHeatGains: People=\"COLLEGE - OFFICE PEOPLE\" has comfort related schedules but no thermal comfort model selected.\n   **   ~~~   ** If schedules are specified for air velocity, clothing insulation, and/or work efficiency but no thermal comfort\n   **   ~~~   ** thermal comfort model is selected, the schedules will be listed as unused schedules in the .err file.\n   **   ~~~   ** To avoid these errors, select a valid thermal comfort model or eliminate these schedules in the PEOPLE input.\n   ** Warning ** GetInternalHeatGains: People=\"COLLEGE - OFFICE PEOPLE\" has comfort related schedules but no thermal comfort model selected.\n   **   ~~~   ** If schedules are specified for air velocity, clothing insulation, and/or work efficiency but no thermal comfort\n   **   ~~~   ** thermal comfort model is selected, the schedules will be listed as unused schedules in the .err file.\n   **   ~~~   ** To avoid these errors, select a valid thermal comfort model or eliminate these schedules in the PEOPLE input.\n   ** Warning ** GetInternalHeatGains: People=\"COLLEGE - OFFICE PEOPLE\" has comfort related schedules but no thermal comfort model selected.\n   **   ~~~   ** If schedules are specified for air velocity, clothing insulation, and/or work efficiency but no thermal comfort\n   **   ~~~   ** thermal comfort model is selected, the schedules will be listed as unused schedules in the .err file.\n   **   ~~~   ** To avoid these errors, select a valid thermal comfort model or eliminate these schedules in the PEOPLE input.\n   ** Warning ** GetInternalHeatGains: People=\"COLLEGE - OFFICE PEOPLE\" has comfort related schedules but no thermal comfort model selected.\n   **   ~~~   ** If schedules are specified for air velocity, clothing insulation, and/or work efficiency but no thermal comfort\n   **   ~~~   ** thermal comfort model is selected, the schedules will be listed as unused schedules in the .err file.\n   **   ~~~   ** To avoid these errors, select a valid thermal comfort model or eliminate these schedules in the PEOPLE input.\n   ** Warning ** GetInternalHeatGains: People=\"COLLEGE - OFFICE PEOPLE\" has comfort related schedules but no thermal comfort model selected.\n   **   ~~~   ** If schedules are specified for air velocity, clothing insulation, and/or work efficiency but no thermal comfort\n   **   ~~~   ** thermal comfort model is selected, the schedules will be listed as unused schedules in the .err file.\n   **   ~~~   ** To avoid these errors, select a valid thermal comfort model or eliminate these schedules in the PEOPLE input.\n   ** Warning ** GetInternalHeatGains: People=\"COLLEGE - OFFICE PEOPLE\" has comfort related schedules but no thermal comfort model selected.\n   **   ~~~   ** If schedules are specified for air velocity, clothing insulation, and/or work efficiency but no thermal comfort\n   **   ~~~   ** thermal comfort model is selected, the schedules will be listed as unused schedules in the .err file.\n   **   ~~~   ** To avoid these errors, select a valid thermal comfort model or eliminate these schedules in the PEOPLE input.\n   ** Warning ** GetInternalHeatGains: People=\"COLLEGE - OFFICE PEOPLE\" has comfort related schedules but no thermal comfort model selected.\n   **   ~~~   ** If schedules are specified for air velocity, clothing insulation, and/or work efficiency but no thermal comfort\n   **   ~~~   ** thermal comfort model is selected, the schedules will be listed as unused schedules in the .err file.\n   **   ~~~   ** To avoid these errors, select a valid thermal comfort model or eliminate these schedules in the PEOPLE input.\n   ** Warning ** GetInternalHeatGains: People=\"COLLEGE - OFFICE PEOPLE\" has comfort related schedules but no thermal comfort model selected.\n   **   ~~~   ** If schedules are specified for air velocity, clothing insulation, and/or work efficiency but no thermal comfort\n   **   ~~~   ** thermal comfort model is selected, the schedules will be listed as unused schedules in the .err file.\n   **   ~~~   ** To avoid these errors, select a valid thermal comfort model or eliminate these schedules in the PEOPLE input.\n   ** Warning ** GetInternalHeatGains: People=\"COLLEGE - OFFICE PEOPLE\" has comfort related schedules but no thermal comfort model selected.\n   **   ~~~   ** If schedules are specified for air velocity, clothing insulation, and/or work efficiency but no thermal comfort\n   **   ~~~   ** thermal comfort model is selected, the schedules will be listed as unused schedules in the .err file.\n   **   ~~~   ** To avoid these errors, select a valid thermal comfort model or eliminate these schedules in the PEOPLE input.\n   ** Warning ** GetInternalHeatGains: People=\"COLLEGE - OFFICE PEOPLE\" has comfort related schedules but no thermal comfort model selected.\n   **   ~~~   ** If schedules are specified for air velocity, clothing insulation, and/or work efficiency but no thermal comfort\n   **   ~~~   ** thermal comfort model is selected, the schedules will be listed as unused schedules in the .err file.\n   **   ~~~   ** To avoid these errors, select a valid thermal comfort model or eliminate these schedules in the PEOPLE input.\n   ** Warning ** GetInternalHeatGains: People=\"COLLEGE - OFFICE PEOPLE\" has comfort related schedules but no thermal comfort model selected.\n   **   ~~~   ** If schedules are specified for air velocity, clothing insulation, and/or work efficiency but no thermal comfort\n   **   ~~~   ** thermal comfort model is selected, the schedules will be listed as unused schedules in the .err file.\n   **   ~~~   ** To avoid these errors, select a valid thermal comfort model or eliminate these schedules in the PEOPLE input.\n   ** Warning ** GetInternalHeatGains: People=\"COLLEGE - OFFICE PEOPLE\" has comfort related schedules but no thermal comfort model selected.\n   **   ~~~   ** If schedules are specified for air velocity, clothing insulation, and/or work efficiency but no thermal comfort\n   **   ~~~   ** thermal comfort model is selected, the schedules will be listed as unused schedules in the .err file.\n   **   ~~~   ** To avoid these errors, select a valid thermal comfort model or eliminate these schedules in the PEOPLE input.\n   ** Warning ** GetInternalHeatGains: People=\"COLLEGE - OFFICE PEOPLE\" has comfort related schedules but no thermal comfort model selected.\n   **   ~~~   ** If schedules are specified for air velocity, clothing insulation, and/or work efficiency but no thermal comfort\n   **   ~~~   ** thermal comfort model is selected, the schedules will be listed as unused schedules in the .err file.\n   **   ~~~   ** To avoid these errors, select a valid thermal comfort model or eliminate these schedules in the PEOPLE input.\n   ** Warning ** GetInternalHeatGains: People=\"COLLEGE - OFFICE PEOPLE\" has comfort related schedules but no thermal comfort model selected.\n   **   ~~~   ** If schedules are specified for air velocity, clothing insulation, and/or work efficiency but no thermal comfort\n   **   ~~~   ** thermal comfort model is selected, the schedules will be listed as unused schedules in the .err file.\n   **   ~~~   ** To avoid these errors, select a valid thermal comfort model or eliminate these schedules in the PEOPLE input.\n   ** Warning ** GetInternalHeatGains: People=\"COLLEGE - LABORATORY PEOPLE\" has comfort related schedules but no thermal comfort model selected.\n   **   ~~~   ** If schedules are specified for air velocity, clothing insulation, and/or work efficiency but no thermal comfort\n   **   ~~~   ** thermal comfort model is selected, the schedules will be listed as unused schedules in the .err file.\n   **   ~~~   ** To avoid these errors, select a valid thermal comfort model or eliminate these schedules in the PEOPLE input.\n   ** Warning ** GetInternalHeatGains: People=\"COLLEGE - LABORATORY PEOPLE\" has comfort related schedules but no thermal comfort model selected.\n   **   ~~~   ** If schedules are specified for air velocity, clothing insulation, and/or work efficiency but no thermal comfort\n   **   ~~~   ** thermal comfort model is selected, the schedules will be listed as unused schedules in the .err file.\n   **   ~~~   ** To avoid these errors, select a valid thermal comfort model or eliminate these schedules in the PEOPLE input.\n   ** Warning ** GetInternalHeatGains: People=\"COLLEGE - LABORATORY PEOPLE\" has comfort related schedules but no thermal comfort model selected.\n   **   ~~~   ** If schedules are specified for air velocity, clothing insulation, and/or work efficiency but no thermal comfort\n   **   ~~~   ** thermal comfort model is selected, the schedules will be listed as unused schedules in the .err file.\n   **   ~~~   ** To avoid these errors, select a valid thermal comfort model or eliminate these schedules in the PEOPLE input.\n   ** Warning ** GetInternalHeatGains: People=\"COLLEGE - LABORATORY PEOPLE\" has comfort related schedules but no thermal comfort model selected.\n   **   ~~~   ** If schedules are specified for air velocity, clothing insulation, and/or work efficiency but no thermal comfort\n   **   ~~~   ** thermal comfort model is selected, the schedules will be listed as unused schedules in the .err file.\n   **   ~~~   ** To avoid these errors, select a valid thermal comfort model or eliminate these schedules in the PEOPLE input.\n   ** Warning ** GetInternalHeatGains: People=\"COLLEGE - LECTURE HALL PEOPLE\" has comfort related schedules but no thermal comfort model selected.\n   **   ~~~   ** If schedules are specified for air velocity, clothing insulation, and/or work efficiency but no thermal comfort\n   **   ~~~   ** thermal comfort model is selected, the schedules will be listed as unused schedules in the .err file.\n   **   ~~~   ** To avoid these errors, select a valid thermal comfort model or eliminate these schedules in the PEOPLE input.\n   ** Warning ** GetInternalHeatGains: People=\"COLLEGE - MEDIA CENTER PEOPLE\" has comfort related schedules but no thermal comfort model selected.\n   **   ~~~   ** If schedules are specified for air velocity, clothing insulation, and/or work efficiency but no thermal comfort\n   **   ~~~   ** thermal comfort model is selected, the schedules will be listed as unused schedules in the .err file.\n   **   ~~~   ** To avoid these errors, select a valid thermal comfort model or eliminate these schedules in the PEOPLE input.\n   ** Warning ** GetInternalHeatGains: People=\"COLLEGE - ART CLASSROOM PEOPLE\" has comfort related schedules but no thermal comfort model selected.\n   **   ~~~   ** If schedules are specified for air velocity, clothing insulation, and/or work efficiency but no thermal comfort\n   **   ~~~   ** thermal comfort model is selected, the schedules will be listed as unused schedules in the .err file.\n   **   ~~~   ** To avoid these errors, select a valid thermal comfort model or eliminate these schedules in the PEOPLE input.\n   ** Warning ** GetInternalHeatGains: People=\"COLLEGE - ART CLASSROOM PEOPLE\" has comfort related schedules but no thermal comfort model selected.\n   **   ~~~   ** If schedules are specified for air velocity, clothing insulation, and/or work efficiency but no thermal comfort\n   **   ~~~   ** thermal comfort model is selected, the schedules will be listed as unused schedules in the .err file.\n   **   ~~~   ** To avoid these errors, select a valid thermal comfort model or eliminate these schedules in the PEOPLE input.\n   ** Warning ** GetInternalHeatGains: People=\"COLLEGE - ART CLASSROOM PEOPLE\" has comfort related schedules but no thermal comfort model selected.\n   **   ~~~   ** If schedules are specified for air velocity, clothing insulation, and/or work efficiency but no thermal comfort\n   **   ~~~   ** thermal comfort model is selected, the schedules will be listed as unused schedules in the .err file.\n   **   ~~~   ** To avoid these errors, select a valid thermal comfort model or eliminate these schedules in the PEOPLE input.\n   ** Warning ** GetInternalHeatGains: People=\"COLLEGE - ART CLASSROOM PEOPLE\" has comfort related schedules but no thermal comfort model selected.\n   **   ~~~   ** If schedules are specified for air velocity, clothing insulation, and/or work efficiency but no thermal comfort\n   **   ~~~   ** thermal comfort model is selected, the schedules will be listed as unused schedules in the .err file.\n   **   ~~~   ** To avoid these errors, select a valid thermal comfort model or eliminate these schedules in the PEOPLE input.\n   ** Warning ** Seems like you already tried to get a Handle on this Actuator 1times.\n   **   ~~~   ** Occurred for componentType='SCHEDULE:YEAR', controlType='SCHEDULE VALUE', uniqueKey='COLLEGE CLGSETP_SCH - OCCUPANT STANDBY MODE'.\n   **   ~~~   ** You should take note that there is a risk of overwritting.\n   ** Warning ** Seems like you already tried to get a Handle on this Actuator 1times.\n   **   ~~~   ** Occurred for componentType='SCHEDULE:YEAR', controlType='SCHEDULE VALUE', uniqueKey='COLLEGE CLGSETP_SCH'.\n   **   ~~~   ** You should take note that there is a risk of overwritting.\n   ** Warning ** Seems like you already tried to get a Handle on this Actuator 1times.\n   **   ~~~   ** Occurred for componentType='SCHEDULE:YEAR', controlType='SCHEDULE VALUE', uniqueKey='COLLEGE CLGSETP_SCH_SETUP'.\n   **   ~~~   ** You should take note that there is a risk of overwritting.\n   ** Warning ** Seems like you already tried to get a Handle on this Actuator 1times.\n   **   ~~~   ** Occurred for componentType='SCHEDULE:YEAR', controlType='SCHEDULE VALUE', uniqueKey='COLLEGE HTGSETP_SCH - OCCUPANT STANDBY MODE'.\n   **   ~~~   ** You should take note that there is a risk of overwritting.\n   ** Warning ** Seems like you already tried to get a Handle on this Actuator 1times.\n   **   ~~~   ** Occurred for componentType='SCHEDULE:YEAR', controlType='SCHEDULE VALUE', uniqueKey='COLLEGE HTGSETP_SCH'.\n   **   ~~~   ** You should take note that there is a risk of overwritting.\n   ** Warning ** Seems like you already tried to get a Handle on this Actuator 1times.\n   **   ~~~   ** Occurred for componentType='SCHEDULE:YEAR', controlType='SCHEDULE VALUE', uniqueKey='COLLEGE HTGSETP_SCH_SETBACK'.\n   **   ~~~   ** You should take note that there is a risk of overwritting.\n   ** Warning ** Seems like you already tried to get a Handle on this Actuator 2times.\n   **   ~~~   ** Occurred for componentType='SCHEDULE:YEAR', controlType='SCHEDULE VALUE', uniqueKey='COLLEGE CLGSETP_SCH - OCCUPANT STANDBY MODE'.\n   **   ~~~   ** You should take note that there is a risk of overwritting.\n   ** Warning ** Seems like you already tried to get a Handle on this Actuator 2times.\n   **   ~~~   ** Occurred for componentType='SCHEDULE:YEAR', controlType='SCHEDULE VALUE', uniqueKey='COLLEGE CLGSETP_SCH'.\n   **   ~~~   ** You should take note that there is a risk of overwritting.\n   ** Warning ** Seems like you already tried to get a Handle on this Actuator 2times.\n   **   ~~~   ** Occurred for componentType='SCHEDULE:YEAR', controlType='SCHEDULE VALUE', uniqueKey='COLLEGE CLGSETP_SCH_SETUP'.\n   **   ~~~   ** You should take note that there is a risk of overwritting.\n   ** Warning ** Seems like you already tried to get a Handle on this Actuator 2times.\n   **   ~~~   ** Occurred for componentType='SCHEDULE:YEAR', controlType='SCHEDULE VALUE', uniqueKey='COLLEGE HTGSETP_SCH - OCCUPANT STANDBY MODE'.\n   **   ~~~   ** You should take note that there is a risk of overwritting.\n   ** Warning ** Seems like you already tried to get a Handle on this Actuator 2times.\n   **   ~~~   ** Occurred for componentType='SCHEDULE:YEAR', controlType='SCHEDULE VALUE', uniqueKey='COLLEGE HTGSETP_SCH'.\n   **   ~~~   ** You should take note that there is a risk of overwritting.\n   ** Warning ** Seems like you already tried to get a Handle on this Actuator 2times.\n   **   ~~~   ** Occurred for componentType='SCHEDULE:YEAR', controlType='SCHEDULE VALUE', uniqueKey='COLLEGE HTGSETP_SCH_SETBACK'.\n   **   ~~~   ** You should take note that there is a risk of overwritting.\n   ** Warning ** Seems like you already tried to get a Handle on this Actuator 3times.\n   **   ~~~   ** Occurred for componentType='SCHEDULE:YEAR', controlType='SCHEDULE VALUE', uniqueKey='COLLEGE CLGSETP_SCH - OCCUPANT STANDBY MODE'.\n   **   ~~~   ** You should take note that there is a risk of overwritting.\n   ** Warning ** Seems like you already tried to get a Handle on this Actuator 3times.\n   **   ~~~   ** Occurred for componentType='SCHEDULE:YEAR', controlType='SCHEDULE VALUE', uniqueKey='COLLEGE CLGSETP_SCH'.\n   **   ~~~   ** You should take note that there is a risk of overwritting.\n   ** Warning ** Seems like you already tried to get a Handle on this Actuator 3times.\n   **   ~~~   ** Occurred for componentType='SCHEDULE:YEAR', controlType='SCHEDULE VALUE', uniqueKey='COLLEGE CLGSETP_SCH_SETUP'.\n   **   ~~~   ** You should take note that there is a risk of overwritting.\n   ** Warning ** Seems like you already tried to get a Handle on this Actuator 3times.\n   **   ~~~   ** Occurred for componentType='SCHEDULE:YEAR', controlType='SCHEDULE VALUE', uniqueKey='COLLEGE HTGSETP_SCH - OCCUPANT STANDBY MODE'.\n   **   ~~~   ** You should take note that there is a risk of overwritting.\n   ** Warning ** Seems like you already tried to get a Handle on this Actuator 3times.\n   **   ~~~   ** Occurred for componentType='SCHEDULE:YEAR', controlType='SCHEDULE VALUE', uniqueKey='COLLEGE HTGSETP_SCH'.\n   **   ~~~   ** You should take note that there is a risk of overwritting.\n   ** Warning ** Seems like you already tried to get a Handle on this Actuator 3times.\n   **   ~~~   ** Occurred for componentType='SCHEDULE:YEAR', controlType='SCHEDULE VALUE', uniqueKey='COLLEGE HTGSETP_SCH_SETBACK'.\n   **   ~~~   ** You should take note that there is a risk of overwritting.\n   ** Warning ** GetDaylightingControls: Fraction of zone or space controlled by the Daylighting reference points is < 1.0.\n   **   ~~~   ** ..discovered in Daylighting:Controls=\"CB_CAFE_STUDY_LOUNGE_F1 ZN DAYLIGHTINGCONTROLS\", only 0.587 of the zone or space is controlled.\n   ** Warning ** GetDaylightingControls: Fraction of zone or space controlled by the Daylighting reference points is < 1.0.\n   **   ~~~   ** ..discovered in Daylighting:Controls=\"CB_CLASSROOM_1_F2 ZN DAYLIGHTINGCONTROLS\", only 0.883 of the zone or space is controlled.\n   ** Warning ** GetDaylightingControls: Fraction of zone or space controlled by the Daylighting reference points is < 1.0.\n   **   ~~~   ** ..discovered in Daylighting:Controls=\"CB_CLASSROOM_1_F3 ZN DAYLIGHTINGCONTROLS\", only 0.883 of the zone or space is controlled.\n   ** Warning ** GetDaylightingControls: Fraction of zone or space controlled by the Daylighting reference points is < 1.0.\n   **   ~~~   ** ..discovered in Daylighting:Controls=\"CB_CLASSROOM_1_F4 ZN DAYLIGHTINGCONTROLS\", only 0.484 of the zone or space is controlled.\n   ** Warning ** GetDaylightingControls: Fraction of zone or space controlled by the Daylighting reference points is < 1.0.\n   **   ~~~   ** ..discovered in Daylighting:Controls=\"CB_CLASSROOM_2_F4 ZN DAYLIGHTINGCONTROLS\", only 0.592 of the zone or space is controlled.\n   ** Warning ** GetDaylightingControls: Fraction of zone or space controlled by the Daylighting reference points is < 1.0.\n   **   ~~~   ** ..discovered in Daylighting:Controls=\"CB_CLASSROOM_3_F4 ZN DAYLIGHTINGCONTROLS\", only 0.592 of the zone or space is controlled.\n   ** Warning ** GetDaylightingControls: Fraction of zone or space controlled by the Daylighting reference points is < 1.0.\n   **   ~~~   ** ..discovered in Daylighting:Controls=\"CB_CLASSROOM_4_F4 ZN DAYLIGHTINGCONTROLS\", only 0.592 of the zone or space is controlled.\n   ** Warning ** GetDaylightingControls: Fraction of zone or space controlled by the Daylighting reference points is < 1.0.\n   **   ~~~   ** ..discovered in Daylighting:Controls=\"CB_CLASSROOM_5_F4 ZN DAYLIGHTINGCONTROLS\", only 0.592 of the zone or space is controlled.\n   ** Warning ** GetDaylightingControls: Fraction of zone or space controlled by the Daylighting reference points is < 1.0.\n   **   ~~~   ** ..discovered in Daylighting:Controls=\"CB_CLASSROOM_6_F4 ZN DAYLIGHTINGCONTROLS\", only 0.810 of the zone or space is controlled.\n   ** Warning ** GetDaylightingControls: Fraction of zone or space controlled by the Daylighting reference points is < 1.0.\n   **   ~~~   ** ..discovered in Daylighting:Controls=\"CB_CLASSROOM_8_F2 ZN DAYLIGHTINGCONTROLS\", only 0.883 of the zone or space is controlled.\n   ** Warning ** GetDaylightingControls: Fraction of zone or space controlled by the Daylighting reference points is < 1.0.\n   **   ~~~   ** ..discovered in Daylighting:Controls=\"CB_CLASSROOM_8_F3 ZN DAYLIGHTINGCONTROLS\", only 0.883 of the zone or space is controlled.\n   ** Warning ** GetDaylightingControls: Fraction of zone or space controlled by the Daylighting reference points is < 1.0.\n   **   ~~~   ** ..discovered in Daylighting:Controls=\"CB_LAB_1_F4 ZN DAYLIGHTINGCONTROLS\", only 0.688 of the zone or space is controlled.\n   ** Warning ** GetDaylightingControls: Fraction of zone or space controlled by the Daylighting reference points is < 1.0.\n   **   ~~~   ** ..discovered in Daylighting:Controls=\"CB_LAB_2_F4 ZN DAYLIGHTINGCONTROLS\", only 0.330 of the zone or space is controlled.\n   ** Warning ** GetDaylightingControls: Fraction of zone or space controlled by the Daylighting reference points is < 1.0.\n   **   ~~~   ** ..discovered in Daylighting:Controls=\"CB_LAB_3_F4 ZN DAYLIGHTINGCONTROLS\", only 0.330 of the zone or space is controlled.\n   ** Warning ** GetDaylightingControls: Fraction of zone or space controlled by the Daylighting reference points is < 1.0.\n   **   ~~~   ** ..discovered in Daylighting:Controls=\"CB_LAB_4_F4 ZN DAYLIGHTINGCONTROLS\", only 0.688 of the zone or space is controlled.\n   ** Warning ** GetDaylightingControls: Fraction of zone or space controlled by the Daylighting reference points is < 1.0.\n   **   ~~~   ** ..discovered in Daylighting:Controls=\"CB_LECTURE_ROOM_1_F1 ZN DAYLIGHTINGCONTROLS\", only 0.508 of the zone or space is controlled.\n   ** Warning ** GetDaylightingControls: Fraction of zone or space controlled by the Daylighting reference points is < 1.0.\n   **   ~~~   ** ..discovered in Daylighting:Controls=\"CB_LECTURE_ROOM_2_F1 ZN DAYLIGHTINGCONTROLS\", only 0.701 of the zone or space is controlled.\n   ** Warning ** GetDaylightingControls: Fraction of zone or space controlled by the Daylighting reference points is < 1.0.\n   **   ~~~   ** ..discovered in Daylighting:Controls=\"CB_LIBRARY_MEDIA_CENTER_F1 ZN DAYLIGHTINGCONTROLS\", only 0.508 of the zone or space is controlled.\n   ** Warning ** GetDaylightingControls: Fraction of zone or space controlled by the Daylighting reference points is < 1.0.\n   **   ~~~   ** ..discovered in Daylighting:Controls=\"CB_STUDIO_1_F2 ZN DAYLIGHTINGCONTROLS\", only 0.459 of the zone or space is controlled.\n   ** Warning ** GetDaylightingControls: Fraction of zone or space controlled by the Daylighting reference points is < 1.0.\n   **   ~~~   ** ..discovered in Daylighting:Controls=\"CB_STUDIO_1_F3 ZN DAYLIGHTINGCONTROLS\", only 0.459 of the zone or space is controlled.\n   ** Warning ** GetDaylightingControls: Fraction of zone or space controlled by the Daylighting reference points is < 1.0.\n   **   ~~~   ** ..discovered in Daylighting:Controls=\"CB_STUDIO_2_F2 ZN DAYLIGHTINGCONTROLS\", only 0.459 of the zone or space is controlled.\n   ** Warning ** GetDaylightingControls: Fraction of zone or space controlled by the Daylighting reference points is < 1.0.\n   **   ~~~   ** ..discovered in Daylighting:Controls=\"CB_STUDIO_2_F3 ZN DAYLIGHTINGCONTROLS\", only 0.459 of the zone or space is controlled.\n   ** Warning ** CheckLightsReplaceable: Zone \"CB_CAFE_STUDY_LOUNGE_F1 ZN\" has Daylighting:Controls.\n   **   ~~~   ** but all of the LIGHTS object in that zone have zero Fraction Replaceable.\n   **   ~~~   ** The daylighting controls will have no effect.\n   ** Warning ** CheckLightsReplaceable: Zone \"CB_CLASSROOM_1_F2 ZN\" has Daylighting:Controls.\n   **   ~~~   ** but all of the LIGHTS object in that zone have zero Fraction Replaceable.\n   **   ~~~   ** The daylighting controls will have no effect.\n   ** Warning ** CheckLightsReplaceable: Zone \"CB_CLASSROOM_1_F3 ZN\" has Daylighting:Controls.\n   **   ~~~   ** but all of the LIGHTS object in that zone have zero Fraction Replaceable.\n   **   ~~~   ** The daylighting controls will have no effect.\n   ** Warning ** CheckLightsReplaceable: Zone \"CB_CLASSROOM_1_F4 ZN\" has Daylighting:Controls.\n   **   ~~~   ** but all of the LIGHTS object in that zone have zero Fraction Replaceable.\n   **   ~~~   ** The daylighting controls will have no effect.\n   ** Warning ** CheckLightsReplaceable: Zone \"CB_CLASSROOM_2_F4 ZN\" has Daylighting:Controls.\n   **   ~~~   ** but all of the LIGHTS object in that zone have zero Fraction Replaceable.\n   **   ~~~   ** The daylighting controls will have no effect.\n   ** Warning ** CheckLightsReplaceable: Zone \"CB_CLASSROOM_3_F4 ZN\" has Daylighting:Controls.\n   **   ~~~   ** but all of the LIGHTS object in that zone have zero Fraction Replaceable.\n   **   ~~~   ** The daylighting controls will have no effect.\n   ** Warning ** CheckLightsReplaceable: Zone \"CB_CLASSROOM_4_F4 ZN\" has Daylighting:Controls.\n   **   ~~~   ** but all of the LIGHTS object in that zone have zero Fraction Replaceable.\n   **   ~~~   ** The daylighting controls will have no effect.\n   ** Warning ** CheckLightsReplaceable: Zone \"CB_CLASSROOM_5_F4 ZN\" has Daylighting:Controls.\n   **   ~~~   ** but all of the LIGHTS object in that zone have zero Fraction Replaceable.\n   **   ~~~   ** The daylighting controls will have no effect.\n   ** Warning ** CheckLightsReplaceable: Zone \"CB_CLASSROOM_6_F4 ZN\" has Daylighting:Controls.\n   **   ~~~   ** but all of the LIGHTS object in that zone have zero Fraction Replaceable.\n   **   ~~~   ** The daylighting controls will have no effect.\n   ** Warning ** CheckLightsReplaceable: Zone \"CB_CLASSROOM_8_F2 ZN\" has Daylighting:Controls.\n   **   ~~~   ** but all of the LIGHTS object in that zone have zero Fraction Replaceable.\n   **   ~~~   ** The daylighting controls will have no effect.\n   ** Warning ** CheckLightsReplaceable: Zone \"CB_CLASSROOM_8_F3 ZN\" has Daylighting:Controls.\n   **   ~~~   ** but all of the LIGHTS object in that zone have zero Fraction Replaceable.\n   **   ~~~   ** The daylighting controls will have no effect.\n   ** Warning ** CheckLightsReplaceable: Zone \"CB_LAB_1_F4 ZN\" has Daylighting:Controls.\n   **   ~~~   ** but all of the LIGHTS object in that zone have zero Fraction Replaceable.\n   **   ~~~   ** The daylighting controls will have no effect.\n   ** Warning ** CheckLightsReplaceable: Zone \"CB_LAB_2_F4 ZN\" has Daylighting:Controls.\n   **   ~~~   ** but all of the LIGHTS object in that zone have zero Fraction Replaceable.\n   **   ~~~   ** The daylighting controls will have no effect.\n   ** Warning ** CheckLightsReplaceable: Zone \"CB_LAB_3_F4 ZN\" has Daylighting:Controls.\n   **   ~~~   ** but all of the LIGHTS object in that zone have zero Fraction Replaceable.\n   **   ~~~   ** The daylighting controls will have no effect.\n   ** Warning ** CheckLightsReplaceable: Zone \"CB_LAB_4_F4 ZN\" has Daylighting:Controls.\n   **   ~~~   ** but all of the LIGHTS object in that zone have zero Fraction Replaceable.\n   **   ~~~   ** The daylighting controls will have no effect.\n   ** Warning ** CheckLightsReplaceable: Zone \"CB_LECTURE_ROOM_1_F1 ZN\" has Daylighting:Controls.\n   **   ~~~   ** but all of the LIGHTS object in that zone have zero Fraction Replaceable.\n   **   ~~~   ** The daylighting controls will have no effect.\n   ** Warning ** CheckLightsReplaceable: Zone \"CB_LECTURE_ROOM_2_F1 ZN\" has Daylighting:Controls.\n   **   ~~~   ** but all of the LIGHTS object in that zone have zero Fraction Replaceable.\n   **   ~~~   ** The daylighting controls will have no effect.\n   ** Warning ** CheckLightsReplaceable: Zone \"CB_LIBRARY_MEDIA_CENTER_F1 ZN\" has Daylighting:Controls.\n   **   ~~~   ** but all of the LIGHTS object in that zone have zero Fraction Replaceable.\n   **   ~~~   ** The daylighting controls will have no effect.\n   ** Warning ** CheckLightsReplaceable: Zone \"CB_STUDIO_1_F2 ZN\" has Daylighting:Controls.\n   **   ~~~   ** but all of the LIGHTS object in that zone have zero Fraction Replaceable.\n   **   ~~~   ** The daylighting controls will have no effect.\n   ** Warning ** CheckLightsReplaceable: Zone \"CB_STUDIO_1_F3 ZN\" has Daylighting:Controls.\n   **   ~~~   ** but all of the LIGHTS object in that zone have zero Fraction Replaceable.\n   **   ~~~   ** The daylighting controls will have no effect.\n   ** Warning ** CheckLightsReplaceable: Zone \"CB_STUDIO_2_F2 ZN\" has Daylighting:Controls.\n   **   ~~~   ** but all of the LIGHTS object in that zone have zero Fraction Replaceable.\n   **   ~~~   ** The daylighting controls will have no effect.\n   ** Warning ** CheckLightsReplaceable: Zone \"CB_STUDIO_2_F3 ZN\" has Daylighting:Controls.\n   **   ~~~   ** but all of the LIGHTS object in that zone have zero Fraction Replaceable.\n   **   ~~~   ** The daylighting controls will have no effect.\n   ** Warning ** Calculated design heating load for zone=CB_CAFE_STUDY_LOUNGE_F1 ZN is zero.\n   **   ~~~   ** Check Sizing:Zone and ZoneControl:Thermostat inputs.\n   ** Warning ** Calculated design heating load for zone=CB_CONFERENCE_ROOM_F1 ZN is zero.\n   **   ~~~   ** Check Sizing:Zone and ZoneControl:Thermostat inputs.\n   ** Warning ** Calculated design heating load for zone=CB_CONFERENCE_ROOM_F2 ZN is zero.\n   **   ~~~   ** Check Sizing:Zone and ZoneControl:Thermostat inputs.\n   ** Warning ** Calculated design heating load for zone=CB_CONFERENCE_ROOM_F3 ZN is zero.\n   **   ~~~   ** Check Sizing:Zone and ZoneControl:Thermostat inputs.\n   ** Warning ** Calculated design heating load for zone=CB_CONFERENCE_ROOM_F4 ZN is zero.\n   **   ~~~   ** Check Sizing:Zone and ZoneControl:Thermostat inputs.\n   ** Warning ** Calculated design heating load for zone=CB_CORRIDOR_2_F3 ZN is zero.\n   **   ~~~   ** Check Sizing:Zone and ZoneControl:Thermostat inputs.\n   ** Warning ** Calculated design heating load for zone=CB_FACULTY_RESTROOMS_1_F2 ZN is zero.\n   **   ~~~   ** Check Sizing:Zone and ZoneControl:Thermostat inputs.\n   ** Warning ** Calculated design heating load for zone=CB_FACULTY_RESTROOMS_1_F3 ZN is zero.\n   **   ~~~   ** Check Sizing:Zone and ZoneControl:Thermostat inputs.\n   ** Warning ** Calculated design heating load for zone=CB_FACULTY_RESTROOMS_1_F4 ZN is zero.\n   **   ~~~   ** Check Sizing:Zone and ZoneControl:Thermostat inputs.\n   ** Warning ** Calculated design heating load for zone=CB_FACULTY_RESTROOMS_2_F2 ZN is zero.\n   **   ~~~   ** Check Sizing:Zone and ZoneControl:Thermostat inputs.\n   ** Warning ** Calculated design heating load for zone=CB_FACULTY_RESTROOMS_2_F3 ZN is zero.\n   **   ~~~   ** Check Sizing:Zone and ZoneControl:Thermostat inputs.\n   ** Warning ** Calculated design heating load for zone=CB_FACULTY_RESTROOMS_2_F4 ZN is zero.\n   **   ~~~   ** Check Sizing:Zone and ZoneControl:Thermostat inputs.\n   ** Warning ** Calculated design heating load for zone=CB_LAB_2_F4 ZN is zero.\n   **   ~~~   ** Check Sizing:Zone and ZoneControl:Thermostat inputs.\n   ** Warning ** Calculated design heating load for zone=CB_LAB_3_F4 ZN is zero.\n   **   ~~~   ** Check Sizing:Zone and ZoneControl:Thermostat inputs.\n   ** Warning ** Calculated design heating load for zone=CB_OFFICES_OPEN_F1 ZN is zero.\n   **   ~~~   ** Check Sizing:Zone and ZoneControl:Thermostat inputs.\n   ** Warning ** Calculated design heating load for zone=CB_OFFICES_OPEN_F2 ZN is zero.\n   **   ~~~   ** Check Sizing:Zone and ZoneControl:Thermostat inputs.\n   ** Warning ** Calculated design heating load for zone=CB_OFFICES_OPEN_F3 ZN is zero.\n   **   ~~~   ** Check Sizing:Zone and ZoneControl:Thermostat inputs.\n   ** Warning ** Calculated design heating load for zone=CB_OFFICES_OPEN_F4 ZN is zero.\n   **   ~~~   ** Check Sizing:Zone and ZoneControl:Thermostat inputs.\n   ** Warning ** Calculated design heating load for zone=CB_STAFF_RESTROOMS_1_F1 ZN is zero.\n   **   ~~~   ** Check Sizing:Zone and ZoneControl:Thermostat inputs.\n   ** Warning ** Calculated design heating load for zone=CB_STAFF_RESTROOMS_2_F1 ZN is zero.\n   **   ~~~   ** Check Sizing:Zone and ZoneControl:Thermostat inputs.\n   ** Warning ** Calculated design heating load for zone=CB_STUDENTS_RESTROOMS_1_F1 ZN is zero.\n   **   ~~~   ** Check Sizing:Zone and ZoneControl:Thermostat inputs.\n   ** Warning ** Calculated design heating load for zone=CB_STUDENTS_RESTROOMS_1_F2 ZN is zero.\n   **   ~~~   ** Check Sizing:Zone and ZoneControl:Thermostat inputs.\n   ** Warning ** Calculated design heating load for zone=CB_STUDENTS_RESTROOMS_1_F3 ZN is zero.\n   **   ~~~   ** Check Sizing:Zone and ZoneControl:Thermostat inputs.\n   ** Warning ** Calculated design heating load for zone=CB_STUDENTS_RESTROOMS_1_F4 ZN is zero.\n   **   ~~~   ** Check Sizing:Zone and ZoneControl:Thermostat inputs.\n   ** Warning ** Calculated design heating load for zone=CB_STUDENTS_RESTROOMS_2_F1 ZN is zero.\n   **   ~~~   ** Check Sizing:Zone and ZoneControl:Thermostat inputs.\n   ** Warning ** Calculated design heating load for zone=CB_STUDENTS_RESTROOMS_2_F2 ZN is zero.\n   **   ~~~   ** Check Sizing:Zone and ZoneControl:Thermostat inputs.\n   ** Warning ** Calculated design heating load for zone=CB_STUDENTS_RESTROOMS_2_F3 ZN is zero.\n   **   ~~~   ** Check Sizing:Zone and ZoneControl:Thermostat inputs.\n   ** Warning ** Calculated design heating load for zone=CB_STUDENTS_RESTROOMS_2_F4 ZN is zero.\n   **   ~~~   ** Check Sizing:Zone and ZoneControl:Thermostat inputs.\n   ************* Beginning System Sizing Calculations\n   ** Warning ** Since Zone Minimum Air Flow Input Method = CONSTANT, input for Fixed Minimum Air Flow Rate will be ignored.\n   **   ~~~   ** Occurs in AirTerminal:SingleDuct:VAV:Reheat = CB_CAFE_STUDY_LOUNGE_F1 ZN VAV TERMINAL\n   ** Warning ** Since Zone Minimum Air Flow Input Method = CONSTANT, input for Fixed Minimum Air Flow Rate will be ignored.\n   **   ~~~   ** Occurs in AirTerminal:SingleDuct:VAV:Reheat = CB_CLASSROOM_1_F2 ZN VAV TERMINAL\n   ** Warning ** Since Zone Minimum Air Flow Input Method = CONSTANT, input for Fixed Minimum Air Flow Rate will be ignored.\n   **   ~~~   ** Occurs in AirTerminal:SingleDuct:VAV:Reheat = CB_CLASSROOM_1_F3 ZN VAV TERMINAL\n   ** Warning ** Since Zone Minimum Air Flow Input Method = CONSTANT, input for Fixed Minimum Air Flow Rate will be ignored.\n   **   ~~~   ** Occurs in AirTerminal:SingleDuct:VAV:Reheat = CB_CLASSROOM_1_F4 ZN VAV TERMINAL\n   ** Warning ** Since Zone Minimum Air Flow Input Method = CONSTANT, input for Fixed Minimum Air Flow Rate will be ignored.\n   **   ~~~   ** Occurs in AirTerminal:SingleDuct:VAV:Reheat = CB_CLASSROOM_2_F2 ZN VAV TERMINAL\n   ** Warning ** Since Zone Minimum Air Flow Input Method = CONSTANT, input for Fixed Minimum Air Flow Rate will be ignored.\n   **   ~~~   ** Occurs in AirTerminal:SingleDuct:VAV:Reheat = CB_CLASSROOM_2_F3 ZN VAV TERMINAL\n   ** Warning ** Since Zone Minimum Air Flow Input Method = CONSTANT, input for Fixed Minimum Air Flow Rate will be ignored.\n   **   ~~~   ** Occurs in AirTerminal:SingleDuct:VAV:Reheat = CB_CLASSROOM_2_F4 ZN VAV TERMINAL\n   ** Warning ** Since Zone Minimum Air Flow Input Method = CONSTANT, input for Fixed Minimum Air Flow Rate will be ignored.\n   **   ~~~   ** Occurs in AirTerminal:SingleDuct:VAV:Reheat = CB_CLASSROOM_3_F2 ZN VAV TERMINAL\n   ** Warning ** Since Zone Minimum Air Flow Input Method = CONSTANT, input for Fixed Minimum Air Flow Rate will be ignored.\n   **   ~~~   ** Occurs in AirTerminal:SingleDuct:VAV:Reheat = CB_CLASSROOM_3_F3 ZN VAV TERMINAL\n   ** Warning ** Since Zone Minimum Air Flow Input Method = CONSTANT, input for Fixed Minimum Air Flow Rate will be ignored.\n   **   ~~~   ** Occurs in AirTerminal:SingleDuct:VAV:Reheat = CB_CLASSROOM_3_F4 ZN VAV TERMINAL\n   ** Warning ** Since Zone Minimum Air Flow Input Method = CONSTANT, input for Fixed Minimum Air Flow Rate will be ignored.\n   **   ~~~   ** Occurs in AirTerminal:SingleDuct:VAV:Reheat = CB_CLASSROOM_4_F2 ZN VAV TERMINAL\n   ** Warning ** Since Zone Minimum Air Flow Input Method = CONSTANT, input for Fixed Minimum Air Flow Rate will be ignored.\n   **   ~~~   ** Occurs in AirTerminal:SingleDuct:VAV:Reheat = CB_CLASSROOM_4_F3 ZN VAV TERMINAL\n   ** Warning ** Since Zone Minimum Air Flow Input Method = CONSTANT, input for Fixed Minimum Air Flow Rate will be ignored.\n   **   ~~~   ** Occurs in AirTerminal:SingleDuct:VAV:Reheat = CB_CLASSROOM_4_F4 ZN VAV TERMINAL\n   ** Warning ** Since Zone Minimum Air Flow Input Method = CONSTANT, input for Fixed Minimum Air Flow Rate will be ignored.\n   **   ~~~   ** Occurs in AirTerminal:SingleDuct:VAV:Reheat = CB_CLASSROOM_5_F2 ZN VAV TERMINAL\n   ** Warning ** Since Zone Minimum Air Flow Input Method = CONSTANT, input for Fixed Minimum Air Flow Rate will be ignored.\n   **   ~~~   ** Occurs in AirTerminal:SingleDuct:VAV:Reheat = CB_CLASSROOM_5_F3 ZN VAV TERMINAL\n   ** Warning ** Since Zone Minimum Air Flow Input Method = CONSTANT, input for Fixed Minimum Air Flow Rate will be ignored.\n   **   ~~~   ** Occurs in AirTerminal:SingleDuct:VAV:Reheat = CB_CLASSROOM_5_F4 ZN VAV TERMINAL\n   ** Warning ** Since Zone Minimum Air Flow Input Method = CONSTANT, input for Fixed Minimum Air Flow Rate will be ignored.\n   **   ~~~   ** Occurs in AirTerminal:SingleDuct:VAV:Reheat = CB_CLASSROOM_6_F2 ZN VAV TERMINAL\n   ** Warning ** Since Zone Minimum Air Flow Input Method = CONSTANT, input for Fixed Minimum Air Flow Rate will be ignored.\n   **   ~~~   ** Occurs in AirTerminal:SingleDuct:VAV:Reheat = CB_CLASSROOM_6_F3 ZN VAV TERMINAL\n   ** Warning ** Since Zone Minimum Air Flow Input Method = CONSTANT, input for Fixed Minimum Air Flow Rate will be ignored.\n   **   ~~~   ** Occurs in AirTerminal:SingleDuct:VAV:Reheat = CB_CLASSROOM_6_F4 ZN VAV TERMINAL\n   ** Warning ** Since Zone Minimum Air Flow Input Method = CONSTANT, input for Fixed Minimum Air Flow Rate will be ignored.\n   **   ~~~   ** Occurs in AirTerminal:SingleDuct:VAV:Reheat = CB_CLASSROOM_7_F2 ZN VAV TERMINAL\n   ** Warning ** Since Zone Minimum Air Flow Input Method = CONSTANT, input for Fixed Minimum Air Flow Rate will be ignored.\n   **   ~~~   ** Occurs in AirTerminal:SingleDuct:VAV:Reheat = CB_CLASSROOM_7_F3 ZN VAV TERMINAL\n   ** Warning ** Since Zone Minimum Air Flow Input Method = CONSTANT, input for Fixed Minimum Air Flow Rate will be ignored.\n   **   ~~~   ** Occurs in AirTerminal:SingleDuct:VAV:Reheat = CB_CLASSROOM_8_F2 ZN VAV TERMINAL\n   ** Warning ** Since Zone Minimum Air Flow Input Method = CONSTANT, input for Fixed Minimum Air Flow Rate will be ignored.\n   **   ~~~   ** Occurs in AirTerminal:SingleDuct:VAV:Reheat = CB_CLASSROOM_8_F3 ZN VAV TERMINAL\n   ** Warning ** Since Zone Minimum Air Flow Input Method = CONSTANT, input for Fixed Minimum Air Flow Rate will be ignored.\n   **   ~~~   ** Occurs in AirTerminal:SingleDuct:VAV:Reheat = CB_CORRIDOR_1_F3 ZN VAV TERMINAL\n   ** Warning ** Since Zone Minimum Air Flow Input Method = CONSTANT, input for Fixed Minimum Air Flow Rate will be ignored.\n   **   ~~~   ** Occurs in AirTerminal:SingleDuct:VAV:Reheat = CB_CORRIDOR_2_F3 ZN VAV TERMINAL\n   ** Warning ** Since Zone Minimum Air Flow Input Method = CONSTANT, input for Fixed Minimum Air Flow Rate will be ignored.\n   **   ~~~   ** Occurs in AirTerminal:SingleDuct:VAV:Reheat = CB_CORRIDOR_F1 ZN VAV TERMINAL\n   ** Warning ** Since Zone Minimum Air Flow Input Method = CONSTANT, input for Fixed Minimum Air Flow Rate will be ignored.\n   **   ~~~   ** Occurs in AirTerminal:SingleDuct:VAV:Reheat = CB_CORRIDOR_F2 ZN VAV TERMINAL\n   ** Warning ** Since Zone Minimum Air Flow Input Method = CONSTANT, input for Fixed Minimum Air Flow Rate will be ignored.\n   **   ~~~   ** Occurs in AirTerminal:SingleDuct:VAV:Reheat = CB_CORRIDOR_F4 ZN VAV TERMINAL\n   ** Warning ** Since Zone Minimum Air Flow Input Method = CONSTANT, input for Fixed Minimum Air Flow Rate will be ignored.\n   **   ~~~   ** Occurs in AirTerminal:SingleDuct:VAV:Reheat = CB_ENTRANCE_LOBBY_F1 ZN VAV TERMINAL\n   ** Warning ** Since Zone Minimum Air Flow Input Method = CONSTANT, input for Fixed Minimum Air Flow Rate will be ignored.\n   **   ~~~   ** Occurs in AirTerminal:SingleDuct:VAV:Reheat = CB_FACULTY_RESTROOMS_1_F2 ZN VAV TERMINAL\n   ** Warning ** Since Zone Minimum Air Flow Input Method = CONSTANT, input for Fixed Minimum Air Flow Rate will be ignored.\n   **   ~~~   ** Occurs in AirTerminal:SingleDuct:VAV:Reheat = CB_FACULTY_RESTROOMS_1_F3 ZN VAV TERMINAL\n   ** Warning ** Since Zone Minimum Air Flow Input Method = CONSTANT, input for Fixed Minimum Air Flow Rate will be ignored.\n   **   ~~~   ** Occurs in AirTerminal:SingleDuct:VAV:Reheat = CB_FACULTY_RESTROOMS_1_F4 ZN VAV TERMINAL\n   ** Warning ** Since Zone Minimum Air Flow Input Method = CONSTANT, input for Fixed Minimum Air Flow Rate will be ignored.\n   **   ~~~   ** Occurs in AirTerminal:SingleDuct:VAV:Reheat = CB_FACULTY_RESTROOMS_2_F2 ZN VAV TERMINAL\n   ** Warning ** Since Zone Minimum Air Flow Input Method = CONSTANT, input for Fixed Minimum Air Flow Rate will be ignored.\n   **   ~~~   ** Occurs in AirTerminal:SingleDuct:VAV:Reheat = CB_FACULTY_RESTROOMS_2_F3 ZN VAV TERMINAL\n   ** Warning ** Since Zone Minimum Air Flow Input Method = CONSTANT, input for Fixed Minimum Air Flow Rate will be ignored.\n   **   ~~~   ** Occurs in AirTerminal:SingleDuct:VAV:Reheat = CB_FACULTY_RESTROOMS_2_F4 ZN VAV TERMINAL\n   ** Warning ** Since Zone Minimum Air Flow Input Method = CONSTANT, input for Fixed Minimum Air Flow Rate will be ignored.\n   **   ~~~   ** Occurs in AirTerminal:SingleDuct:VAV:Reheat = CB_LAB_1_F4 ZN VAV TERMINAL\n   ** Warning ** Since Zone Minimum Air Flow Input Method = CONSTANT, input for Fixed Minimum Air Flow Rate will be ignored.\n   **   ~~~   ** Occurs in AirTerminal:SingleDuct:VAV:Reheat = CB_LAB_2_F4 ZN VAV TERMINAL\n   ** Warning ** Since Zone Minimum Air Flow Input Method = CONSTANT, input for Fixed Minimum Air Flow Rate will be ignored.\n   **   ~~~   ** Occurs in AirTerminal:SingleDuct:VAV:Reheat = CB_LAB_3_F4 ZN VAV TERMINAL\n   ** Warning ** Since Zone Minimum Air Flow Input Method = CONSTANT, input for Fixed Minimum Air Flow Rate will be ignored.\n   **   ~~~   ** Occurs in AirTerminal:SingleDuct:VAV:Reheat = CB_LAB_4_F4 ZN VAV TERMINAL\n   ** Warning ** Since Zone Minimum Air Flow Input Method = CONSTANT, input for Fixed Minimum Air Flow Rate will be ignored.\n   **   ~~~   ** Occurs in AirTerminal:SingleDuct:VAV:Reheat = CB_LECTURE_ROOM_1_F1 ZN VAV TERMINAL\n   ** Warning ** Since Zone Minimum Air Flow Input Method = CONSTANT, input for Fixed Minimum Air Flow Rate will be ignored.\n   **   ~~~   ** Occurs in AirTerminal:SingleDuct:VAV:Reheat = CB_LECTURE_ROOM_2_F1 ZN VAV TERMINAL\n   ** Warning ** Since Zone Minimum Air Flow Input Method = CONSTANT, input for Fixed Minimum Air Flow Rate will be ignored.\n   **   ~~~   ** Occurs in AirTerminal:SingleDuct:VAV:Reheat = CB_LIBRARY_MEDIA_CENTER_F1 ZN VAV TERMINAL\n   ** Warning ** Since Zone Minimum Air Flow Input Method = CONSTANT, input for Fixed Minimum Air Flow Rate will be ignored.\n   **   ~~~   ** Occurs in AirTerminal:SingleDuct:VAV:Reheat = CB_MAIN_STAIRS_F1 ZN VAV TERMINAL\n   ** Warning ** Since Zone Minimum Air Flow Input Method = CONSTANT, input for Fixed Minimum Air Flow Rate will be ignored.\n   **   ~~~   ** Occurs in AirTerminal:SingleDuct:VAV:Reheat = CB_MAIN_STAIRS_F2 ZN VAV TERMINAL\n   ** Warning ** Since Zone Minimum Air Flow Input Method = CONSTANT, input for Fixed Minimum Air Flow Rate will be ignored.\n   **   ~~~   ** Occurs in AirTerminal:SingleDuct:VAV:Reheat = CB_MAIN_STAIRS_F3 ZN VAV TERMINAL\n   ** Warning ** Since Zone Minimum Air Flow Input Method = CONSTANT, input for Fixed Minimum Air Flow Rate will be ignored.\n   **   ~~~   ** Occurs in AirTerminal:SingleDuct:VAV:Reheat = CB_MAIN_STAIRS_F4 ZN VAV TERMINAL\n   ** Warning ** Since Zone Minimum Air Flow Input Method = CONSTANT, input for Fixed Minimum Air Flow Rate will be ignored.\n   **   ~~~   ** Occurs in AirTerminal:SingleDuct:VAV:Reheat = CB_SECONDARY_STAIRS_1_F1 ZN VAV TERMINAL\n   ** Warning ** Since Zone Minimum Air Flow Input Method = CONSTANT, input for Fixed Minimum Air Flow Rate will be ignored.\n   **   ~~~   ** Occurs in AirTerminal:SingleDuct:VAV:Reheat = CB_SECONDARY_STAIRS_1_F2 ZN VAV TERMINAL\n   ** Warning ** Since Zone Minimum Air Flow Input Method = CONSTANT, input for Fixed Minimum Air Flow Rate will be ignored.\n   **   ~~~   ** Occurs in AirTerminal:SingleDuct:VAV:Reheat = CB_SECONDARY_STAIRS_1_F3 ZN VAV TERMINAL\n   ** Warning ** Since Zone Minimum Air Flow Input Method = CONSTANT, input for Fixed Minimum Air Flow Rate will be ignored.\n   **   ~~~   ** Occurs in AirTerminal:SingleDuct:VAV:Reheat = CB_SECONDARY_STAIRS_1_F4 ZN VAV TERMINAL\n   ** Warning ** Since Zone Minimum Air Flow Input Method = CONSTANT, input for Fixed Minimum Air Flow Rate will be ignored.\n   **   ~~~   ** Occurs in AirTerminal:SingleDuct:VAV:Reheat = CB_SECONDARY_STAIRS_2_F1 ZN VAV TERMINAL\n   ** Warning ** Since Zone Minimum Air Flow Input Method = CONSTANT, input for Fixed Minimum Air Flow Rate will be ignored.\n   **   ~~~   ** Occurs in AirTerminal:SingleDuct:VAV:Reheat = CB_SECONDARY_STAIRS_2_F2 ZN VAV TERMINAL\n   ** Warning ** Since Zone Minimum Air Flow Input Method = CONSTANT, input for Fixed Minimum Air Flow Rate will be ignored.\n   **   ~~~   ** Occurs in AirTerminal:SingleDuct:VAV:Reheat = CB_SECONDARY_STAIRS_2_F3 ZN VAV TERMINAL\n   ** Warning ** Since Zone Minimum Air Flow Input Method = CONSTANT, input for Fixed Minimum Air Flow Rate will be ignored.\n   **   ~~~   ** Occurs in AirTerminal:SingleDuct:VAV:Reheat = CB_SECONDARY_STAIRS_2_F4 ZN VAV TERMINAL\n   ** Warning ** Since Zone Minimum Air Flow Input Method = CONSTANT, input for Fixed Minimum Air Flow Rate will be ignored.\n   **   ~~~   ** Occurs in AirTerminal:SingleDuct:VAV:Reheat = CB_STAFF_RESTROOMS_1_F1 ZN VAV TERMINAL\n   ** Warning ** Since Zone Minimum Air Flow Input Method = CONSTANT, input for Fixed Minimum Air Flow Rate will be ignored.\n   **   ~~~   ** Occurs in AirTerminal:SingleDuct:VAV:Reheat = CB_STAFF_RESTROOMS_2_F1 ZN VAV TERMINAL\n   ** Warning ** Since Zone Minimum Air Flow Input Method = CONSTANT, input for Fixed Minimum Air Flow Rate will be ignored.\n   **   ~~~   ** Occurs in AirTerminal:SingleDuct:VAV:Reheat = CB_STORAGE_F1 ZN VAV TERMINAL\n   ** Warning ** Since Zone Minimum Air Flow Input Method = CONSTANT, input for Fixed Minimum Air Flow Rate will be ignored.\n   **   ~~~   ** Occurs in AirTerminal:SingleDuct:VAV:Reheat = CB_STUDENTS_RESTROOMS_1_F1 ZN VAV TERMINAL\n   ** Warning ** Since Zone Minimum Air Flow Input Method = CONSTANT, input for Fixed Minimum Air Flow Rate will be ignored.\n   **   ~~~   ** Occurs in AirTerminal:SingleDuct:VAV:Reheat = CB_STUDENTS_RESTROOMS_1_F2 ZN VAV TERMINAL\n   ** Warning ** Since Zone Minimum Air Flow Input Method = CONSTANT, input for Fixed Minimum Air Flow Rate will be ignored.\n   **   ~~~   ** Occurs in AirTerminal:SingleDuct:VAV:Reheat = CB_STUDENTS_RESTROOMS_1_F3 ZN VAV TERMINAL\n   ** Warning ** Since Zone Minimum Air Flow Input Method = CONSTANT, input for Fixed Minimum Air Flow Rate will be ignored.\n   **   ~~~   ** Occurs in AirTerminal:SingleDuct:VAV:Reheat = CB_STUDENTS_RESTROOMS_1_F4 ZN VAV TERMINAL\n   ** Warning ** Since Zone Minimum Air Flow Input Method = CONSTANT, input for Fixed Minimum Air Flow Rate will be ignored.\n   **   ~~~   ** Occurs in AirTerminal:SingleDuct:VAV:Reheat = CB_STUDENTS_RESTROOMS_2_F1 ZN VAV TERMINAL\n   ** Warning ** Since Zone Minimum Air Flow Input Method = CONSTANT, input for Fixed Minimum Air Flow Rate will be ignored.\n   **   ~~~   ** Occurs in AirTerminal:SingleDuct:VAV:Reheat = CB_STUDENTS_RESTROOMS_2_F2 ZN VAV TERMINAL\n   ** Warning ** Since Zone Minimum Air Flow Input Method = CONSTANT, input for Fixed Minimum Air Flow Rate will be ignored.\n   **   ~~~   ** Occurs in AirTerminal:SingleDuct:VAV:Reheat = CB_STUDENTS_RESTROOMS_2_F3 ZN VAV TERMINAL\n   ** Warning ** Since Zone Minimum Air Flow Input Method = CONSTANT, input for Fixed Minimum Air Flow Rate will be ignored.\n   **   ~~~   ** Occurs in AirTerminal:SingleDuct:VAV:Reheat = CB_STUDENTS_RESTROOMS_2_F4 ZN VAV TERMINAL\n   ** Warning ** Since Zone Minimum Air Flow Input Method = CONSTANT, input for Fixed Minimum Air Flow Rate will be ignored.\n   **   ~~~   ** Occurs in AirTerminal:SingleDuct:VAV:Reheat = CB_STUDIO_1_F2 ZN VAV TERMINAL\n   ** Warning ** Since Zone Minimum Air Flow Input Method = CONSTANT, input for Fixed Minimum Air Flow Rate will be ignored.\n   **   ~~~   ** Occurs in AirTerminal:SingleDuct:VAV:Reheat = CB_STUDIO_1_F3 ZN VAV TERMINAL\n   ** Warning ** Since Zone Minimum Air Flow Input Method = CONSTANT, input for Fixed Minimum Air Flow Rate will be ignored.\n   **   ~~~   ** Occurs in AirTerminal:SingleDuct:VAV:Reheat = CB_STUDIO_2_F2 ZN VAV TERMINAL\n   ** Warning ** Since Zone Minimum Air Flow Input Method = CONSTANT, input for Fixed Minimum Air Flow Rate will be ignored.\n   **   ~~~   ** Occurs in AirTerminal:SingleDuct:VAV:Reheat = CB_STUDIO_2_F3 ZN VAV TERMINAL\n   ** Warning ** Since Zone Minimum Air Flow Input Method = CONSTANT, input for Fixed Minimum Air Flow Rate will be ignored.\n   **   ~~~   ** Occurs in AirTerminal:SingleDuct:VAV:Reheat = CB_UTILITY_F1 ZN VAV TERMINAL\n   ** Warning ** Since Zone Minimum Air Flow Input Method = CONSTANT, input for Fixed Minimum Air Flow Rate will be ignored.\n   **   ~~~   ** Occurs in AirTerminal:SingleDuct:VAV:Reheat = CB_UTILITY_F2 ZN VAV TERMINAL\n   ** Warning ** Since Zone Minimum Air Flow Input Method = CONSTANT, input for Fixed Minimum Air Flow Rate will be ignored.\n   **   ~~~   ** Occurs in AirTerminal:Sin
[...]
               },
               {
                  "name" : "fuel_oil_no_2_exterior_lighting_ip",
                  "units" : "MBtu",
                  "value" : 0.0
               },
               {
                  "name" : "fuel_oil_no_2_interior_equipment_ip",
                  "units" : "MBtu",
                  "value" : 0.0
               },
               {
                  "name" : "fuel_oil_no_2_exterior_equipment_ip",
                  "units" : "MBtu",
                  "value" : 0.0
               },
               {
                  "name" : "fuel_oil_no_2_fans_ip",
                  "units" : "MBtu",
                  "value" : 0.0
               },
               {
                  "name" : "fuel_oil_no_2_pumps_ip",
                  "units" : "MBtu",
                  "value" : 0.0
               },
               {
                  "name" : "fuel_oil_no_2_heat_rejection_ip",
                  "units" : "MBtu",
                  "value" : 0.0
               },
               {
                  "name" : "fuel_oil_no_2_humidification_ip",
                  "units" : "MBtu",
                  "value" : 0.0
               },
               {
                  "name" : "fuel_oil_no_2_heat_recovery_ip",
                  "units" : "MBtu",
                  "value" : 0.0
               },
               {
                  "name" : "fuel_oil_no_2_water_systems_ip",
                  "units" : "MBtu",
                  "value" : 0.0
               },
               {
                  "name" : "fuel_oil_no_2_refrigeration_ip",
                  "units" : "MBtu",
                  "value" : 0.0
               },
               {
                  "name" : "fuel_oil_no_2_generators_ip",
                  "units" : "MBtu",
                  "value" : 0.0
               },
               {
                  "name" : "fuel_oil_no_2_ip",
                  "units" : "MBtu",
                  "value" : 0.0
               },
               {
                  "name" : "propane_heating_ip",
                  "units" : "MBtu",
                  "value" : 0.0
               },
               {
                  "name" : "propane_cooling_ip",
                  "units" : "MBtu",
                  "value" : 0.0
               },
               {
                  "name" : "propane_interior_lighting_ip",
                  "units" : "MBtu",
                  "value" : 0.0
               },
               {
                  "name" : "propane_exterior_lighting_ip",
                  "units" : "MBtu",
                  "value" : 0.0
               },
               {
                  "name" : "propane_interior_equipment_ip",
                  "units" : "MBtu",
                  "value" : 0.0
               },
               {
                  "name" : "propane_exterior_equipment_ip",
                  "units" : "MBtu",
                  "value" : 0.0
               },
               {
                  "name" : "propane_fans_ip",
                  "units" : "MBtu",
                  "value" : 0.0
               },
               {
                  "name" : "propane_pumps_ip",
                  "units" : "MBtu",
                  "value" : 0.0
               },
               {
                  "name" : "propane_heat_rejection_ip",
                  "units" : "MBtu",
                  "value" : 0.0
               },
               {
                  "name" : "propane_humidification_ip",
                  "units" : "MBtu",
                  "value" : 0.0
               },
               {
                  "name" : "propane_heat_recovery_ip",
                  "units" : "MBtu",
                  "value" : 0.0
               },
               {
                  "name" : "propane_water_systems_ip",
                  "units" : "MBtu",
                  "value" : 0.0
               },
               {
                  "name" : "propane_refrigeration_ip",
                  "units" : "MBtu",
                  "value" : 0.0
               },
               {
                  "name" : "propane_generators_ip",
                  "units" : "MBtu",
                  "value" : 0.0
               },
               {
                  "name" : "propane_ip",
                  "units" : "MBtu",
                  "value" : 0.0
               },
               {
                  "name" : "other_fuel_1_heating_ip",
                  "units" : "MBtu",
                  "value" : 0.0
               },
               {
                  "name" : "other_fuel_1_cooling_ip",
                  "units" : "MBtu",
                  "value" : 0.0
               },
               {
                  "name" : "other_fuel_1_interior_lighting_ip",
                  "units" : "MBtu",
                  "value" : 0.0
               },
               {
                  "name" : "other_fuel_1_exterior_lighting_ip",
                  "units" : "MBtu",
                  "value" : 0.0
               },
               {
                  "name" : "other_fuel_1_interior_equipment_ip",
                  "units" : "MBtu",
                  "value" : 0.0
               },
               {
                  "name" : "other_fuel_1_exterior_equipment_ip",
                  "units" : "MBtu",
                  "value" : 0.0
               },
               {
                  "name" : "other_fuel_1_fans_ip",
                  "units" : "MBtu",
                  "value" : 0.0
               },
               {
                  "name" : "other_fuel_1_pumps_ip",
                  "units" : "MBtu",
                  "value" : 0.0
               },
               {
                  "name" : "other_fuel_1_heat_rejection_ip",
                  "units" : "MBtu",
                  "value" : 0.0
               },
               {
                  "name" : "other_fuel_1_humidification_ip",
                  "units" : "MBtu",
                  "value" : 0.0
               },
               {
                  "name" : "other_fuel_1_heat_recovery_ip",
                  "units" : "MBtu",
                  "value" : 0.0
               },
               {
                  "name" : "other_fuel_1_water_systems_ip",
                  "units" : "MBtu",
                  "value" : 0.0
               },
               {
                  "name" : "other_fuel_1_refrigeration_ip",
                  "units" : "MBtu",
                  "value" : 0.0
               },
               {
                  "name" : "other_fuel_1_generators_ip",
                  "units" : "MBtu",
                  "value" : 0.0
               },
               {
                  "name" : "other_fuel_1_ip",
                  "units" : "MBtu",
                  "value" : 0.0
               },
               {
                  "name" : "other_fuel_2_heating_ip",
                  "units" : "MBtu",
                  "value" : 0.0
               },
               {
                  "name" : "other_fuel_2_cooling_ip",
                  "units" : "MBtu",
                  "value" : 0.0
               },
               {
                  "name" : "other_fuel_2_interior_lighting_ip",
                  "units" : "MBtu",
                  "value" : 0.0
               },
               {
                  "name" : "other_fuel_2_exterior_lighting_ip",
                  "units" : "MBtu",
                  "value" : 0.0
               },
               {
                  "name" : "other_fuel_2_interior_equipment_ip",
                  "units" : "MBtu",
                  "value" : 0.0
               },
               {
                  "name" : "other_fuel_2_exterior_equipment_ip",
                  "units" : "MBtu",
                  "value" : 0.0
               },
               {
                  "name" : "other_fuel_2_fans_ip",
                  "units" : "MBtu",
                  "value" : 0.0
               },
               {
                  "name" : "other_fuel_2_pumps_ip",
                  "units" : "MBtu",
                  "value" : 0.0
               },
               {
                  "name" : "other_fuel_2_heat_rejection_ip",
                  "units" : "MBtu",
                  "value" : 0.0
               },
               {
                  "name" : "other_fuel_2_humidification_ip",
                  "units" : "MBtu",
                  "value" : 0.0
               },
               {
                  "name" : "other_fuel_2_heat_recovery_ip",
                  "units" : "MBtu",
                  "value" : 0.0
               },
               {
                  "name" : "other_fuel_2_water_systems_ip",
                  "units" : "MBtu",
                  "value" : 0.0
               },
               {
                  "name" : "other_fuel_2_refrigeration_ip",
                  "units" : "MBtu",
                  "value" : 0.0
               },
               {
                  "name" : "other_fuel_2_generators_ip",
                  "units" : "MBtu",
                  "value" : 0.0
               },
               {
                  "name" : "other_fuel_2_ip",
                  "units" : "MBtu",
                  "value" : 0.0
               },
               {
                  "name" : "district_cooling_heating_ip",
                  "units" : "MBtu",
                  "value" : 0.0
               },
               {
                  "name" : "district_cooling_cooling_ip",
                  "units" : "MBtu",
                  "value" : 0.0
               },
               {
                  "name" : "district_cooling_interior_lighting_ip",
                  "units" : "MBtu",
                  "value" : 0.0
               },
               {
                  "name" : "district_cooling_exterior_lighting_ip",
                  "units" : "MBtu",
                  "value" : 0.0
               },
               {
                  "name" : "district_cooling_interior_equipment_ip",
                  "units" : "MBtu",
                  "value" : 0.0
               },
               {
                  "name" : "district_cooling_exterior_equipment_ip",
                  "units" : "MBtu",
                  "value" : 0.0
               },
               {
                  "name" : "district_cooling_fans_ip",
                  "units" : "MBtu",
                  "value" : 0.0
               },
               {
                  "name" : "district_cooling_pumps_ip",
                  "units" : "MBtu",
                  "value" : 0.0
               },
               {
                  "name" : "district_cooling_heat_rejection_ip",
                  "units" : "MBtu",
                  "value" : 0.0
               },
               {
                  "name" : "district_cooling_humidification_ip",
                  "units" : "MBtu",
                  "value" : 0.0
               },
               {
                  "name" : "district_cooling_heat_recovery_ip",
                  "units" : "MBtu",
                  "value" : 0.0
               },
               {
                  "name" : "district_cooling_water_systems_ip",
                  "units" : "MBtu",
                  "value" : 0.0
               },
               {
                  "name" : "district_cooling_refrigeration_ip",
                  "units" : "MBtu",
                  "value" : 0.0
               },
               {
                  "name" : "district_cooling_generators_ip",
                  "units" : "MBtu",
                  "value" : 0.0
               },
               {
                  "name" : "district_cooling_ip",
                  "units" : "MBtu",
                  "value" : 0.0
               },
               {
                  "name" : "district_heating_heating_ip",
                  "units" : "MBtu",
                  "value" : 0.0
               },
               {
                  "name" : "district_heating_cooling_ip",
                  "units" : "MBtu",
                  "value" : 0.0
               },
               {
                  "name" : "district_heating_interior_lighting_ip",
                  "units" : "MBtu",
                  "value" : 0.0
               },
               {
                  "name" : "district_heating_exterior_lighting_ip",
                  "units" : "MBtu",
                  "value" : 0.0
               },
               {
                  "name" : "district_heating_interior_equipment_ip",
                  "units" : "MBtu",
                  "value" : 0.0
               },
               {
                  "name" : "district_heating_exterior_equipment_ip",
                  "units" : "MBtu",
                  "value" : 0.0
               },
               {
                  "name" : "district_heating_fans_ip",
                  "units" : "MBtu",
                  "value" : 0.0
               },
               {
                  "name" : "district_heating_pumps_ip",
                  "units" : "MBtu",
                  "value" : 0.0
               },
               {
                  "name" : "district_heating_heat_rejection_ip",
                  "units" : "MBtu",
                  "value" : 0.0
               },
               {
                  "name" : "district_heating_humidification_ip",
                  "units" : "MBtu",
                  "value" : 0.0
               },
               {
                  "name" : "district_heating_heat_recovery_ip",
                  "units" : "MBtu",
                  "value" : 0.0
               },
               {
                  "name" : "district_heating_water_systems_ip",
                  "units" : "MBtu",
                  "value" : 0.0
               },
               {
                  "name" : "district_heating_refrigeration_ip",
                  "units" : "MBtu",
                  "value" : 0.0
               },
               {
                  "name" : "district_heating_generators_ip",
                  "units" : "MBtu",
                  "value" : 0.0
               },
               {
                  "name" : "district_heating_ip",
                  "units" : "MBtu",
                  "value" : 0.0
               },
               {
                  "name" : "typical_iead_roof_highly_reflective_r_25_64",
                  "units" : "ft^2",
                  "value" : 17264.0
               },
               {
                  "name" : "typical_insulated_steel_framed_exterior_wall_r_11_9",
                  "units" : "ft^2",
                  "value" : 20976.797717752244
               },
               {
                  "name" : "u_0_77_shgc_0_23_simple_glazing_window_u_0_77_shgc_0_23",
                  "units" : "ft^2",
                  "value" : 9287.2022822477447
               },
               {
                  "name" : "gross_window_wall_ratio",
                  "units" : "%",
                  "value" : 30.690000000000001
               },
               {
                  "name" : "gross_window_wall_ratio_conditioned",
                  "units" : "%",
                  "value" : 30.690000000000001
               },
               {
                  "name" : "skylight_roof_ratio",
                  "units" : "%",
                  "value" : 0.0
               },
               {
                  "name" : "space_type_college_art_classroom",
                  "units" : "ft^2",
                  "value" : 12900.0
               },
               {
                  "name" : "space_type_college_classroom",
                  "units" : "ft^2",
                  "value" : 16199.999999999993
               },
               {
                  "name" : "space_type_college_conference",
                  "units" : "ft^2",
                  "value" : 1484.9999999999998
               },
               {
                  "name" : "space_type_college_corridor",
                  "units" : "ft^2",
                  "value" : 4945.0000000000036
               },
               {
                  "name" : "space_type_college_elevator_shaft",
                  "units" : "ft^2",
                  "value" : 511.99999999999966
               },
               {
                  "name" : "space_type_college_entrance_lobby",
                  "units" : "ft^2",
                  "value" : 809.99999999999989
               },
               {
                  "name" : "space_type_college_laboratory",
                  "units" : "ft^2",
                  "value" : 5819.9999999999991
               },
               {
                  "name" : "space_type_college_lecture_hall",
                  "units" : "ft^2",
                  "value" : 2909.9999999999995
               },
               {
                  "name" : "space_type_college_lounge",
                  "units" : "ft^2",
                  "value" : 1934.9999999999995
               },
               {
                  "name" : "space_type_college_media_center",
                  "units" : "ft^2",
                  "value" : 2910.0000000000005
               },
               {
                  "name" : "space_type_college_office",
                  "units" : "ft^2",
                  "value" : 13078.999999999987
               },
               {
                  "name" : "space_type_college_restroom",
                  "units" : "ft^2",
                  "value" : 2507.9999999999991
               },
               {
                  "name" : "space_type_college_stairs",
                  "units" : "ft^2",
                  "value" : 1880.0000000000016
               },
               {
                  "name" : "space_type_college_storage",
                  "units" : "ft^2",
                  "value" : 809.99999999999989
               },
               {
                  "name" : "space_type_college_utility",
                  "units" : "ft^2",
                  "value" : 352.0
               },
               {
                  "name" : "main_service_water_use_0_58_gpm_at_140_f",
                  "units" : "gal/min",
                  "value" : 0.58000000000000063
               },
               {
                  "name" : "zone_max_hours_over_70_rh",
                  "units" : "hr",
                  "value" : 8516.0
               },
               {
                  "name" : "zone_max_hours_over_55_rh",
                  "units" : "hr",
                  "value" : 8760.0
               },
               {
                  "name" : "num_zones_x_hours_over_70",
                  "units" : "zones",
                  "value" : 64
               },
               {
                  "name" : "num_zones_x_hours_over_55",
                  "units" : "zones",
                  "value" : 86
               },
               {
                  "name" : "inflation_approach",
                  "value" : "Constant Dollar"
               },
               {
                  "name" : "analysis_length",
                  "units" : "yrs",
                  "value" : 25
               },
               {
                  "name" : "number_of_measures_with_warnings",
                  "value" : 0
               },
               {
                  "name" : "number_warnings",
                  "value" : 0
               },
               {
                  "name" : "annual_peak_electric_demand",
                  "units" : "kW",
                  "value" : 288.08110999999997
               },
               {
                  "name" : "first_year_capital_cost",
                  "units" : "$",
                  "value" : 0.0
               },
               {
                  "name" : "annual_utility_cost",
                  "units" : "$",
                  "value" : 0.0
               },
               {
                  "name" : "total_lifecycle_cost",
                  "units" : "$",
                  "value" : 0.0
               }
            ],
            "step_warnings" : []
         }
      }
   ],
   "updated_at" : "20230909T180555Z",
   "weather_file" : "SGP_Singapore.486980_IWEC.epw"
}