Program Version,EnergyPlus, Version 23.1.0-87ed9199d4, YMD=2023.09.09 10:58
! This file shows details about the branches, nodes, and other
! elements of the flow connections.
! This file is intended for use in "debugging" potential problems
! that may also be detected by the program, but may be more easily
! identified by "eye".
! This file is also intended to support software which draws a
! schematic diagram of the HVAC system.
! ===============================================================
! #Nodes,<Number of Unique Nodes>
 #Nodes,913
! <Node>,<NodeNumber>,<Node Name>,<Node Fluid Type>,<# Times Node Referenced After Definition>
 Node,1,CB_CAFE_STUDY_LOUNGE_F1 ZN VAV TERMINAL OUTLET AIR NODE,Air,4
 Node,2,CB_CAFE_STUDY_LOUNGE_F1 ZN RETURN AIR NODE,Air,2
 Node,3,CB_CLASSROOM_1_F2 ZN VAV TERMINAL OUTLET AIR NODE,Air,4
 Node,4,CB_CLASSROOM_1_F2 ZN RETURN AIR NODE,Air,2
 Node,5,CB_CLASSROOM_1_F3 ZN VAV TERMINAL OUTLET AIR NODE,Air,4
 Node,6,CB_CLASSROOM_1_F3 ZN RETURN AIR NODE,Air,2
 Node,7,CB_CLASSROOM_1_F4 ZN VAV TERMINAL OUTLET AIR NODE,Air,4
 Node,8,CB_CLASSROOM_1_F4 ZN RETURN AIR NODE,Air,2
 Node,9,CB_CLASSROOM_2_F2 ZN VAV TERMINAL OUTLET AIR NODE,Air,4
 Node,10,CB_CLASSROOM_2_F2 ZN RETURN AIR NODE,Air,2
 Node,11,CB_CLASSROOM_2_F3 ZN VAV TERMINAL OUTLET AIR NODE,Air,4
 Node,12,CB_CLASSROOM_2_F3 ZN RETURN AIR NODE,Air,2
 Node,13,CB_CLASSROOM_2_F4 ZN VAV TERMINAL OUTLET AIR NODE,Air,4
 Node,14,CB_CLASSROOM_2_F4 ZN RETURN AIR NODE,Air,2
 Node,15,CB_CLASSROOM_3_F2 ZN VAV TERMINAL OUTLET AIR NODE,Air,4
 Node,16,CB_CLASSROOM_3_F2 ZN RETURN AIR NODE,Air,2
 Node,17,CB_CLASSROOM_3_F3 ZN VAV TERMINAL OUTLET AIR NODE,Air,4
 Node,18,CB_CLASSROOM_3_F3 ZN RETURN AIR NODE,Air,2
 Node,19,CB_CLASSROOM_3_F4 ZN VAV TERMINAL OUTLET AIR NODE,Air,4
 Node,20,CB_CLASSROOM_3_F4 ZN RETURN AIR NODE,Air,2
 Node,21,CB_CLASSROOM_4_F2 ZN VAV TERMINAL OUTLET AIR NODE,Air,4
 Node,22,CB_CLASSROOM_4_F2 ZN RETURN AIR NODE,Air,2
 Node,23,CB_CLASSROOM_4_F3 ZN VAV TERMINAL OUTLET AIR NODE,Air,4
 Node,24,CB_CLASSROOM_4_F3 ZN RETURN AIR NODE,Air,2
 Node,25,CB_CLASSROOM_4_F4 ZN VAV TERMINAL OUTLET AIR NODE,Air,4
 Node,26,CB_CLASSROOM_4_F4 ZN RETURN AIR NODE,Air,2
 Node,27,CB_CLASSROOM_5_F2 ZN VAV TERMINAL OUTLET AIR NODE,Air,4
 Node,28,CB_CLASSROOM_5_F2 ZN RETURN AIR NODE,Air,2
 Node,29,CB_CLASSROOM_5_F3 ZN VAV TERMINAL OUTLET AIR NODE,Air,4
 Node,30,CB_CLASSROOM_5_F3 ZN RETURN AIR NODE,Air,2
 Node,31,CB_CLASSROOM_5_F4 ZN VAV TERMINAL OUTLET AIR NODE,Air,4
 Node,32,CB_CLASSROOM_5_F4 ZN RETURN AIR NODE,Air,2
 Node,33,CB_CLASSROOM_6_F2 ZN VAV TERMINAL OUTLET AIR NODE,Air,4
 Node,34,CB_CLASSROOM_6_F2 ZN RETURN AIR NODE,Air,2
 Node,35,CB_CLASSROOM_6_F3 ZN VAV TERMINAL OUTLET AIR NODE,Air,4
 Node,36,CB_CLASSROOM_6_F3 ZN RETURN AIR NODE,Air,2
 Node,37,CB_CLASSROOM_6_F4 ZN VAV TERMINAL OUTLET AIR NODE,Air,4
 Node,38,CB_CLASSROOM_6_F4 ZN RETURN AIR NODE,Air,2
 Node,39,CB_CLASSROOM_7_F2 ZN VAV TERMINAL OUTLET AIR NODE,Air,4
 Node,40,CB_CLASSROOM_7_F2 ZN RETURN AIR NODE,Air,2
 Node,41,CB_CLASSROOM_7_F3 ZN VAV TERMINAL OUTLET AIR NODE,Air,4
 Node,42,CB_CLASSROOM_7_F3 ZN RETURN AIR NODE,Air,2
 Node,43,CB_CLASSROOM_8_F2 ZN VAV TERMINAL OUTLET AIR NODE,Air,4
 Node,44,CB_CLASSROOM_8_F2 ZN RETURN AIR NODE,Air,2
 Node,45,CB_CLASSROOM_8_F3 ZN VAV TERMINAL OUTLET AIR NODE,Air,4
 Node,46,CB_CLASSROOM_8_F3 ZN RETURN AIR NODE,Air,2
 Node,47,CB_CONFERENCE_ROOM_F1 ZN VAV TERMINAL OUTLET AIR NODE,Air,4
 Node,48,CB_CONFERENCE_ROOM_F1 ZN RETURN AIR NODE,Air,2
 Node,49,CB_CONFERENCE_ROOM_F2 ZN VAV TERMINAL OUTLET AIR NODE,Air,4
 Node,50,CB_CONFERENCE_ROOM_F2 ZN RETURN AIR NODE,Air,2
 Node,51,CB_CONFERENCE_ROOM_F3 ZN VAV TERMINAL OUTLET AIR NODE,Air,4
 Node,52,CB_CONFERENCE_ROOM_F3 ZN RETURN AIR NODE,Air,2
 Node,53,CB_CONFERENCE_ROOM_F4 ZN VAV TERMINAL OUTLET AIR NODE,Air,4
 Node,54,CB_CONFERENCE_ROOM_F4 ZN RETURN AIR NODE,Air,2
 Node,55,CB_CORRIDOR_1_F3 ZN VAV TERMINAL OUTLET AIR NODE,Air,4
 Node,56,CB_CORRIDOR_1_F3 ZN RETURN AIR NODE,Air,2
 Node,57,CB_CORRIDOR_2_F3 ZN VAV TERMINAL OUTLET AIR NODE,Air,4
 Node,58,CB_CORRIDOR_2_F3 ZN RETURN AIR NODE,Air,2
 Node,59,CB_CORRIDOR_F1 ZN VAV TERMINAL OUTLET AIR NODE,Air,4
 Node,60,CB_CORRIDOR_F1 ZN RETURN AIR NODE,Air,2
 Node,61,CB_CORRIDOR_F2 ZN VAV TERMINAL OUTLET AIR NODE,Air,4
 Node,62,CB_CORRIDOR_F2 ZN RETURN AIR NODE,Air,2
 Node,63,CB_CORRIDOR_F4 ZN VAV TERMINAL OUTLET AIR NODE,Air,4
 Node,64,CB_CORRIDOR_F4 ZN RETURN AIR NODE,Air,2
 Node,65,CB_ENTRANCE_LOBBY_F1 ZN VAV TERMINAL OUTLET AIR NODE,Air,4
 Node,66,CB_ENTRANCE_LOBBY_F1 ZN RETURN AIR NODE,Air,2
 Node,67,CB_FACULTY_OFFICE_1_F2 ZN VAV TERMINAL OUTLET AIR NODE,Air,4
 Node,68,CB_FACULTY_OFFICE_1_F2 ZN RETURN AIR NODE,Air,2
 Node,69,CB_FACULTY_OFFICE_1_F3 ZN VAV TERMINAL OUTLET AIR NODE,Air,4
 Node,70,CB_FACULTY_OFFICE_1_F3 ZN RETURN AIR NODE,Air,2
 Node,71,CB_FACULTY_OFFICE_1_F4 ZN VAV TERMINAL OUTLET AIR NODE,Air,4
 Node,72,CB_FACULTY_OFFICE_1_F4 ZN RETURN AIR NODE,Air,2
 Node,73,CB_FACULTY_OFFICE_2_F2 ZN VAV TERMINAL OUTLET AIR NODE,Air,4
 Node,74,CB_FACULTY_OFFICE_2_F2 ZN RETURN AIR NODE,Air,2
 Node,75,CB_FACULTY_OFFICE_2_F3 ZN VAV TERMINAL OUTLET AIR NODE,Air,4
 Node,76,CB_FACULTY_OFFICE_2_F3 ZN RETURN AIR NODE,Air,2
 Node,77,CB_FACULTY_OFFICE_2_F4 ZN VAV TERMINAL OUTLET AIR NODE,Air,4
 Node,78,CB_FACULTY_OFFICE_2_F4 ZN RETURN AIR NODE,Air,2
 Node,79,CB_FACULTY_OFFICE_3_F2 ZN VAV TERMINAL OUTLET AIR NODE,Air,4
 Node,80,CB_FACULTY_OFFICE_3_F2 ZN RETURN AIR NODE,Air,2
 Node,81,CB_FACULTY_OFFICE_3_F3 ZN VAV TERMINAL OUTLET AIR NODE,Air,4
 Node,82,CB_FACULTY_OFFICE_3_F3 ZN RETURN AIR NODE,Air,2
 Node,83,CB_FACULTY_OFFICE_3_F4 ZN VAV TERMINAL OUTLET AIR NODE,Air,4
 Node,84,CB_FACULTY_OFFICE_3_F4 ZN RETURN AIR NODE,Air,2
 Node,85,CB_FACULTY_OFFICE_4_F2 ZN VAV TERMINAL OUTLET AIR NODE,Air,4
 Node,86,CB_FACULTY_OFFICE_4_F2 ZN RETURN AIR NODE,Air,2
 Node,87,CB_FACULTY_OFFICE_4_F3 ZN VAV TERMINAL OUTLET AIR NODE,Air,4
 Node,88,CB_FACULTY_OFFICE_4_F3 ZN RETURN AIR NODE,Air,2
 Node,89,CB_FACULTY_OFFICE_4_F4 ZN VAV TERMINAL OUTLET AIR NODE,Air,4
 Node,90,CB_FACULTY_OFFICE_4_F4 ZN RETURN AIR NODE,Air,2
 Node,91,CB_FACULTY_OFFICE_5_F2 ZN VAV TERMINAL OUTLET AIR NODE,Air,4
 Node,92,CB_FACULTY_OFFICE_5_F2 ZN RETURN AIR NODE,Air,2
 Node,93,CB_FACULTY_OFFICE_5_F3 ZN VAV TERMINAL OUTLET AIR NODE,Air,4
 Node,94,CB_FACULTY_OFFICE_5_F3 ZN RETURN AIR NODE,Air,2
 Node,95,CB_FACULTY_OFFICE_5_F4 ZN VAV TERMINAL OUTLET AIR NODE,Air,4
 Node,96,CB_FACULTY_OFFICE_5_F4 ZN RETURN AIR NODE,Air,2
 Node,97,CB_FACULTY_OFFICE_6_F2 ZN VAV TERMINAL OUTLET AIR NODE,Air,4
 Node,98,CB_FACULTY_OFFICE_6_F2 ZN RETURN AIR NODE,Air,2
 Node,99,CB_FACULTY_OFFICE_6_F3 ZN VAV TERMINAL OUTLET AIR NODE,Air,4
 Node,100,CB_FACULTY_OFFICE_6_F3 ZN RETURN AIR NODE,Air,2
 Node,101,CB_FACULTY_OFFICE_6_F4 ZN VAV TERMINAL OUTLET AIR NODE,Air,4
 Node,102,CB_FACULTY_OFFICE_6_F4 ZN RETURN AIR NODE,Air,2
 Node,103,CB_FACULTY_OFFICE_7_F2 ZN VAV TERMINAL OUTLET AIR NODE,Air,4
 Node,104,CB_FACULTY_OFFICE_7_F2 ZN RETURN AIR NODE,Air,2
 Node,105,CB_FACULTY_OFFICE_7_F3 ZN VAV TERMINAL OUTLET AIR NODE,Air,4
 Node,106,CB_FACULTY_OFFICE_7_F3 ZN RETURN AIR NODE,Air,2
 Node,107,CB_FACULTY_OFFICE_7_F4 ZN VAV TERMINAL OUTLET AIR NODE,Air,4
 Node,108,CB_FACULTY_OFFICE_7_F4 ZN RETURN AIR NODE,Air,2
 Node,109,CB_FACULTY_OFFICE_8_F2 ZN VAV TERMINAL OUTLET AIR NODE,Air,4
 Node,110,CB_FACULTY_OFFICE_8_F2 ZN RETURN AIR NODE,Air,2
 Node,111,CB_FACULTY_OFFICE_8_F3 ZN VAV TERMINAL OUTLET AIR NODE,Air,4
 Node,112,CB_FACULTY_OFFICE_8_F3 ZN RETURN AIR NODE,Air,2
 Node,113,CB_FACULTY_OFFICE_8_F4 ZN VAV TERMINAL OUTLET AIR NODE,Air,4
 Node,114,CB_FACULTY_OFFICE_8_F4 ZN RETURN AIR NODE,Air,2
 Node,115,CB_FACULTY_RESTROOMS_1_F2 ZN VAV TERMINAL OUTLET AIR NODE,Air,4
 Node,116,CB_FACULTY_RESTROOMS_1_F2 ZN RETURN AIR NODE,Air,2
 Node,117,CB_FACULTY_RESTROOMS_1_F3 ZN VAV TERMINAL OUTLET AIR NODE,Air,4
 Node,118,CB_FACULTY_RESTROOMS_1_F3 ZN RETURN AIR NODE,Air,2
 Node,119,CB_FACULTY_RESTROOMS_1_F4 ZN VAV TERMINAL OUTLET AIR NODE,Air,4
 Node,120,CB_FACULTY_RESTROOMS_1_F4 ZN RETURN AIR NODE,Air,2
 Node,121,CB_FACULTY_RESTROOMS_2_F2 ZN VAV TERMINAL OUTLET AIR NODE,Air,4
 Node,122,CB_FACULTY_RESTROOMS_2_F2 ZN RETURN AIR NODE,Air,2
 Node,123,CB_FACULTY_RESTROOMS_2_F3 ZN VAV TERMINAL OUTLET AIR NODE,Air,4
 Node,124,CB_FACULTY_RESTROOMS_2_F3 ZN RETURN AIR NODE,Air,2
 Node,125,CB_FACULTY_RESTROOMS_2_F4 ZN VAV TERMINAL OUTLET AIR NODE,Air,4
 Node,126,CB_FACULTY_RESTROOMS_2_F4 ZN RETURN AIR NODE,Air,2
 Node,127,CB_LAB_1_F4 ZN VAV TERMINAL OUTLET AIR NODE,Air,4
 Node,128,CB_LAB_1_F4 ZN RETURN AIR NODE,Air,2
 Node,129,CB_LAB_2_F4 ZN VAV TERMINAL OUTLET AIR NODE,Air,4
 Node,130,CB_LAB_2_F4 ZN RETURN AIR NODE,Air,2
 Node,131,CB_LAB_3_F4 ZN VAV TERMINAL OUTLET AIR NODE,Air,4
 Node,132,CB_LAB_3_F4 ZN RETURN AIR NODE,Air,2
 Node,133,CB_LAB_4_F4 ZN VAV TERMINAL OUTLET AIR NODE,Air,4
 Node,134,CB_LAB_4_F4 ZN RETURN AIR NODE,Air,2
 Node,135,CB_LECTURE_ROOM_1_F1 ZN VAV TERMINAL OUTLET AIR NODE,Air,4
 Node,136,CB_LECTURE_ROOM_1_F1 ZN RETURN AIR NODE,Air,2
 Node,137,CB_LECTURE_ROOM_2_F1 ZN VAV TERMINAL OUTLET AIR NODE,Air,4
 Node,138,CB_LECTURE_ROOM_2_F1 ZN RETURN AIR NODE,Air,2
 Node,139,CB_LIBRARY_MEDIA_CENTER_F1 ZN VAV TERMINAL OUTLET AIR NODE,Air,4
 Node,140,CB_LIBRARY_MEDIA_CENTER_F1 ZN RETURN AIR NODE,Air,2
 Node,141,CB_MAIN_STAIRS_F1 ZN VAV TERMINAL OUTLET AIR NODE,Air,4
 Node,142,CB_MAIN_STAIRS_F1 ZN RETURN AIR NODE,Air,2
 Node,143,CB_MAIN_STAIRS_F2 ZN VAV TERMINAL OUTLET AIR NODE,Air,4
 Node,144,CB_MAIN_STAIRS_F2 ZN RETURN AIR NODE,Air,2
 Node,145,CB_MAIN_STAIRS_F3 ZN VAV TERMINAL OUTLET AIR NODE,Air,4
 Node,146,CB_MAIN_STAIRS_F3 ZN RETURN AIR NODE,Air,2
 Node,147,CB_MAIN_STAIRS_F4 ZN VAV TERMINAL OUTLET AIR NODE,Air,4
 Node,148,CB_MAIN_STAIRS_F4 ZN RETURN AIR NODE,Air,2
 Node,149,CB_OFFICES_ENCLOSED_1_F1 ZN VAV TERMINAL OUTLET AIR NODE,Air,4
 Node,150,CB_OFFICES_ENCLOSED_1_F1 ZN RETURN AIR NODE,Air,2
 Node,151,CB_OFFICES_ENCLOSED_2_F1 ZN VAV TERMINAL OUTLET AIR NODE,Air,4
 Node,152,CB_OFFICES_ENCLOSED_2_F1 ZN RETURN AIR NODE,Air,2
 Node,153,CB_OFFICES_ENCLOSED_3_F1 ZN VAV TERMINAL OUTLET AIR NODE,Air,4
 Node,154,CB_OFFICES_ENCLOSED_3_F1 ZN RETURN AIR NODE,Air,2
 Node,155,CB_OFFICES_ENCLOSED_4_F1 ZN VAV TERMINAL OUTLET AIR NODE,Air,4
 Node,156,CB_OFFICES_ENCLOSED_4_F1 ZN RETURN AIR NODE,Air,2
 Node,157,CB_OFFICES_ENCLOSED_5_F1 ZN VAV TERMINAL OUTLET AIR NODE,Air,4
 Node,158,CB_OFFICES_ENCLOSED_5_F1 ZN RETURN AIR NODE,Air,2
 Node,159,CB_OFFICES_ENCLOSED_6_F1 ZN VAV TERMINAL OUTLET AIR NODE,Air,4
 Node,160,CB_OFFICES_ENCLOSED_6_F1 ZN RETURN AIR NODE,Air,2
 Node,161,CB_OFFICES_ENCLOSED_7_F1 ZN VAV TERMINAL OUTLET AIR NODE,Air,4
 Node,162,CB_OFFICES_ENCLOSED_7_F1 ZN RETURN AIR NODE,Air,2
 Node,163,CB_OFFICES_ENCLOSED_8_F1 ZN VAV TERMINAL OUTLET AIR NODE,Air,4
 Node,164,CB_OFFICES_ENCLOSED_8_F1 ZN RETURN AIR NODE,Air,2
 Node,165,CB_OFFICES_OPEN_F1 ZN VAV TERMINAL OUTLET AIR NODE,Air,4
 Node,166,CB_OFFICES_OPEN_F1 ZN RETURN AIR NODE,Air,2
 Node,167,CB_OFFICES_OPEN_F2 ZN VAV TERMINAL OUTLET AIR NODE,Air,4
 Node,168,CB_OFFICES_OPEN_F2 ZN RETURN AIR NODE,Air,2
 Node,169,CB_OFFICES_OPEN_F3 ZN VAV TERMINAL OUTLET AIR NODE,Air,4
 Node,170,CB_OFFICES_OPEN_F3 ZN RETURN AIR NODE,Air,2
 Node,171,CB_OFFICES_OPEN_F4 ZN VAV TERMINAL OUTLET AIR NODE,Air,4
 Node,172,CB_OFFICES_OPEN_F4 ZN RETURN AIR NODE,Air,2
 Node,173,CB_SECONDARY_STAIRS_1_F1 ZN VAV TERMINAL OUTLET AIR NODE,Air,4
 Node,174,CB_SECONDARY_STAIRS_1_F1 ZN RETURN AIR NODE,Air,2
 Node,175,CB_SECONDARY_STAIRS_1_F2 ZN VAV TERMINAL OUTLET AIR NODE,Air,4
 Node,176,CB_SECONDARY_STAIRS_1_F2 ZN RETURN AIR NODE,Air,2
 Node,177,CB_SECONDARY_STAIRS_1_F3 ZN VAV TERMINAL OUTLET AIR NODE,Air,4
 Node,178,CB_SECONDARY_STAIRS_1_F3 ZN RETURN AIR NODE,Air,2
 Node,179,CB_SECONDARY_STAIRS_1_F4 ZN VAV TERMINAL OUTLET AIR NODE,Air,4
 Node,180,CB_SECONDARY_STAIRS_1_F4 ZN RETURN AIR NODE,Air,2
 Node,181,CB_SECONDARY_STAIRS_2_F1 ZN VAV TERMINAL OUTLET AIR NODE,Air,4
 Node,182,CB_SECONDARY_STAIRS_2_F1 ZN RETURN AIR NODE,Air,2
 Node,183,CB_SECONDARY_STAIRS_2_F2 ZN VAV TERMINAL OUTLET AIR NODE,Air,4
 Node,184,CB_SECONDARY_STAIRS_2_F2 ZN RETURN AIR NODE,Air,2
 Node,185,CB_SECONDARY_STAIRS_2_F3 ZN VAV TERMINAL OUTLET AIR NODE,Air,4
 Node,186,CB_SECONDARY_STAIRS_2_F3 ZN RETURN AIR NODE,Air,2
 Node,187,CB_SECONDARY_STAIRS_2_F4 ZN VAV TERMINAL OUTLET AIR NODE,Air,4
 Node,188,CB_SECONDARY_STAIRS_2_F4 ZN RETURN AIR NODE,Air,2
 Node,189,CB_STAFF_RESTROOMS_1_F1 ZN VAV TERMINAL OUTLET AIR NODE,Air,4
 Node,190,CB_STAFF_RESTROOMS_1_F1 ZN RETURN AIR NODE,Air,2
 Node,191,CB_STAFF_RESTROOMS_2_F1 ZN VAV TERMINAL OUTLET AIR NODE,Air,4
 Node,192,CB_STAFF_RESTROOMS_2_F1 ZN RETURN AIR NODE,Air,2
 Node,193,CB_STORAGE_F1 ZN VAV TERMINAL OUTLET AIR NODE,Air,4
 Node,194,CB_STORAGE_F1 ZN RETURN AIR NODE,Air,2
 Node,195,CB_STUDENTS_RESTROOMS_1_F1 ZN VAV TERMINAL OUTLET AIR NODE,Air,4
 Node,196,CB_STUDENTS_RESTROOMS_1_F1 ZN RETURN AIR NODE,Air,2
 Node,197,CB_STUDENTS_RESTROOMS_1_F2 ZN VAV TERMINAL OUTLET AIR NODE,Air,4
 Node,198,CB_STUDENTS_RESTROOMS_1_F2 ZN RETURN AIR NODE,Air,2
 Node,199,CB_STUDENTS_RESTROOMS_1_F3 ZN VAV TERMINAL OUTLET AIR NODE,Air,4
 Node,200,CB_STUDENTS_RESTROOMS_1_F3 ZN RETURN AIR NODE,Air,2
 Node,201,CB_STUDENTS_RESTROOMS_1_F4 ZN VAV TERMINAL OUTLET AIR NODE,Air,4
 Node,202,CB_STUDENTS_RESTROOMS_1_F4 ZN RETURN AIR NODE,Air,2
 Node,203,CB_STUDENTS_RESTROOMS_2_F1 ZN VAV TERMINAL OUTLET AIR NODE,Air,4
 Node,204,CB_STUDENTS_RESTROOMS_2_F1 ZN RETURN AIR NODE,Air,2
 Node,205,CB_STUDENTS_RESTROOMS_2_F2 ZN VAV TERMINAL OUTLET AIR NODE,Air,4
 Node,206,CB_STUDENTS_RESTROOMS_2_F2 ZN RETURN AIR NODE,Air,2
 Node,207,CB_STUDENTS_RESTROOMS_2_F3 ZN VAV TERMINAL OUTLET AIR NODE,Air,4
 Node,208,CB_STUDENTS_RESTROOMS_2_F3 ZN RETURN AIR NODE,Air,2
 Node,209,CB_STUDENTS_RESTROOMS_2_F4 ZN VAV TERMINAL OUTLET AIR NODE,Air,4
 Node,210,CB_STUDENTS_RESTROOMS_2_F4 ZN RETURN AIR NODE,Air,2
 Node,211,CB_STUDIO_1_F2 ZN VAV TERMINAL OUTLET AIR NODE,Air,4
 Node,212,CB_STUDIO_1_F2 ZN RETURN AIR NODE,Air,2
 Node,213,CB_STUDIO_1_F3 ZN VAV TERMINAL OUTLET AIR NODE,Air,4
 Node,214,CB_STUDIO_1_F3 ZN RETURN AIR NODE,Air,2
 Node,215,CB_STUDIO_2_F2 ZN VAV TERMINAL OUTLET AIR NODE,Air,4
 Node,216,CB_STUDIO_2_F2 ZN RETURN AIR NODE,Air,2
 Node,217,CB_STUDIO_2_F3 ZN VAV TERMINAL OUTLET AIR NODE,Air,4
 Node,218,CB_STUDIO_2_F3 ZN RETURN AIR NODE,Air,2
 Node,219,CB_UTILITY_F1 ZN VAV TERMINAL OUTLET AIR NODE,Air,4
 Node,220,CB_UTILITY_F1 ZN RETURN AIR NODE,Air,2
 Node,221,CB_UTILITY_F2 ZN VAV TERMINAL OUTLET AIR NODE,Air,4
 Node,222,CB_UTILITY_F2 ZN RETURN AIR NODE,Air,2
 Node,223,CB_UTILITY_F3 ZN VAV TERMINAL OUTLET AIR NODE,Air,4
 Node,224,CB_UTILITY_F3 ZN RETURN AIR NODE,Air,2
 Node,225,CB_UTILITY_F4 ZN VAV TERMINAL OUTLET AIR NODE,Air,4
 Node,226,CB_UTILITY_F4 ZN RETURN AIR NODE,Air,2
 Node,227,VAV_1 SUPPLY OUTLET NODE,Air,10
 Node,228,VAV_1 DEMAND INLET NODE,Air,3
 Node,229,VAV_2 SUPPLY OUTLET NODE,Air,10
 Node,230,VAV_2 DEMAND INLET NODE,Air,3
 Node,231,VAV_3 SUPPLY OUTLET NODE,Air,10
 Node,232,VAV_3 DEMAND INLET NODE,Air,3
 Node,233,VAV_4 SUPPLY OUTLET NODE,Air,10
 Node,234,VAV_4 DEMAND INLET NODE,Air,3
 Node,235,VAV_1 SUPPLY INLET NODE,Air,3
 Node,236,VAV_1 MIXED AIR NODE,Air,5
 Node,237,VAV_1 CLG COIL OUTLET AIR NODE,Air,5
 Node,238,VAV_1 MAIN HTG COIL OUTLET AIR NODE,Air,8
 Node,239,VAV_2 SUPPLY INLET NODE,Air,3
 Node,240,VAV_2 MIXED AIR NODE,Air,5
 Node,241,VAV_2 CLG COIL OUTLET AIR NODE,Air,5
 Node,242,VAV_2 MAIN HTG COIL OUTLET AIR NODE,Air,8
 Node,243,VAV_3 SUPPLY INLET NODE,Air,3
 Node,244,VAV_3 MIXED AIR NODE,Air,5
 Node,245,VAV_3 CLG COIL OUTLET AIR NODE,Air,5
 Node,246,VAV_3 MAIN HTG COIL OUTLET AIR NODE,Air,8
 Node,247,VAV_4 SUPPLY INLET NODE,Air,3
 Node,248,VAV_4 MIXED AIR NODE,Air,5
 Node,249,VAV_4 CLG COIL OUTLET AIR NODE,Air,5
 Node,250,VAV_4 MAIN HTG COIL OUTLET AIR NODE,Air,8
 Node,251,CHILLED WATER LOOP SUPPLY INLET NODE,Water,2
 Node,252,CHILLED WATER LOOP PRIMARY PUMP OUTLET WATER NODE,Water,1
 Node,253,90.1-2019 WATERCOOLED  CENTRIFUGAL CHILLER 0 116TONS 0.6KW/TON SUPPLY INLET WATER NODE,Water,1
 Node,254,90.1-2019 WATERCOOLED  CENTRIFUGAL CHILLER 0 116TONS 0.6KW/TON SUPPLY OUTLET WATER NODE,Water,1
 Node,255,CHILLED WATER LOOP CHILLER BYPASS INLET WATER NODE,Water,1
 Node,256,CHILLED WATER LOOP CHILLER BYPASS OUTLET WATER NODE,Water,1
 Node,257,CHILLED WATER LOOP SUPPLY OUTLET INLET WATER NODE,Water,1
 Node,258,CHILLED WATER LOOP SUPPLY OUTLET NODE,Water,4
 Node,259,CHILLED WATER LOOP DEMAND INLET NODE,Water,2
 Node,260,CHILLED WATER LOOP SECONDARY PUMP INLET WATER NODE,Water,3
 Node,261,CHILLED WATER LOOP SECONDARY PUMP OUTLET WATER NODE,Water,1
 Node,262,CHILLED WATER LOOP COIL BYPASS INLET WATER NODE,Water,1
 Node,263,CHILLED WATER LOOP COIL BYPASS OUTLET WATER NODE,Water,1
 Node,264,VAV_1 CLG COIL INLET WATER NODE,Water,2
 Node,265,VAV_1 CLG COIL OUTLET WATER NODE,Water,1
 Node,266,VAV_2 CLG COIL INLET WATER NODE,Water,2
 Node,267,VAV_2 CLG COIL OUTLET WATER NODE,Water,1
 Node,268,VAV_3 CLG COIL INLET WATER NODE,Water,2
 Node,269,VAV_3 CLG COIL OUTLET WATER NODE,Water,1
 Node,270,VAV_4 CLG COIL INLET WATER NODE,Water,2
 Node,271,VAV_4 CLG COIL OUTLET WATER NODE,Water,1
 Node,272,CHILLED WATER LOOP DEMAND BYPASS PIPE INLET NODE,Water,1
 Node,273,CHILLED WATER LOOP DEMAND BYPASS PIPE OUTLET NODE,Water,1
 Node,274,CHILLED WATER LOOP DEMAND OUTLET INLET WATER NODE,Water,1
 Node,275,CHILLED WATER LOOP DEMAND OUTLET NODE,Water,2
 Node,276,CONDENSER WATER LOOP SUPPLY INLET NODE,Water,2
 Node,277,CONDENSER WATER LOOP CONSTANT PUMP OUTLET WATER NODE,Water,1
 Node,278,CENTRIFUGAL VARIABLE SPEED FAN OPEN COOLING TOWER 20.0 GPM/HP INLET WATER NODE,Water,1
 Node,279,CENTRIFUGAL VARIABLE SPEED FAN OPEN COOLING TOWER 20.0 GPM/HP OUTLET WATER NODE,Water,1
 Node,280,CONDENSER WATER LOOP COOLING TOWER BYPASS INLET WATER NODE,Water,1
 Node,281,CONDENSER WATER LOOP COOLING TOWER BYPASS OUTLET WATER NODE,Water,1
 Node,282,CONDENSER WATER LOOP SUPPLY OUTLET INLET WATER NODE,Water,1
 Node,283,CONDENSER WATER LOOP SUPPLY OUTLET NODE,Water,4
 Node,284,CONDENSER WATER LOOP DEMAND INLET NODE,Water,2
 Node,285,CONDENSER WATER LOOP DEMAND INLET OUTLET WATER NODE,Water,1
 Node,286,CONDENSER WATER LOOP CHILLER BYPASS INLET WATER NODE,Water,1
 Node,287,CONDENSER WATER LOOP CHILLER BYPASS OUTLET WATER NODE,Water,1
 Node,288,90.1-2019 WATERCOOLED  CENTRIFUGAL CHILLER 0 116TONS 0.6KW/TON DEMAND INLET WATER NODE,Water,1
 Node,289,90.1-2019 WATERCOOLED  CENTRIFUGAL CHILLER 0 116TONS 0.6KW/TON DEMAND OUTLET WATER NODE,Water,1
 Node,290,CONDENSER WATER LOOP DEMAND BYPASS PIPE INLET NODE,Water,1
 Node,291,CONDENSER WATER LOOP DEMAND BYPASS PIPE OUTLET NODE,Water,1
 Node,292,CONDENSER WATER LOOP DEMAND OUTLET INLET WATER NODE,Water,1
 Node,293,CONDENSER WATER LOOP DEMAND OUTLET NODE,Water,2
 Node,294,HOT WATER LOOP SUPPLY INLET NODE,Water,2
 Node,295,HOT WATER LOOP PUMP OUTLET WATER NODE,Water,1
 Node,296,BOILER 551KBTU/HR 0.8 THERMAL EFF INLET WATER NODE,Water,1
 Node,297,BOILER 551KBTU/HR 0.8 THERMAL EFF OUTLET WATER NODE,Water,1
 Node,298,HOT WATER LOOP SUPPLY EQUIPMENT BYPASS INLET WATER NODE,Water,1
 Node,299,HOT WATER LOOP SUPPLY EQUIPMENT BYPASS OUTLET WATER NODE,Water,1
 Node,300,HOT WATER LOOP SUPPLY OUTLET INLET WATER NODE,Water,1
 Node,301,HOT WATER LOOP SUPPLY OUTLET NODE,Water,4
 Node,302,HOT WATER LOOP DEMAND INLET NODE,Water,2
 Node,303,HOT WATER LOOP DEMAND INLET OUTLET WATER NODE,Water,1
 Node,304,HOT WATER LOOP COIL BYPASS INLET WATER NODE,Water,1
 Node,305,HOT WATER LOOP COIL BYPASS OUTLET WATER NODE,Water,1
 Node,306,VAV_1 MAIN HTG COIL INLET WATER NODE,Water,2
 Node,307,VAV_1 MAIN HTG COIL OUTLET WATER NODE,Water,1
 Node,308,CB_OFFICES_ENCLOSED_1_F1 ZN REHEAT COIL INLET WATER NODE,Water,1
 Node,309,CB_OFFICES_ENCLOSED_1_F1 ZN REHEAT COIL OUTLET WATER NODE,Water,1
 Node,310,CB_OFFICES_ENCLOSED_2_F1 ZN REHEAT COIL INLET WATER NODE,Water,1
 Node,311,CB_OFFICES_ENCLOSED_2_F1 ZN REHEAT COIL OUTLET WATER NODE,Water,1
 Node,312,CB_OFFICES_ENCLOSED_3_F1 ZN REHEAT COIL INLET WATER NODE,Water,1
 Node,313,CB_OFFICES_ENCLOSED_3_F1 ZN REHEAT COIL OUTLET WATER NODE,Water,1
 Node,314,CB_OFFICES_ENCLOSED_4_F1 ZN REHEAT COIL INLET WATER NODE,Water,1
 Node,315,CB_OFFICES_ENCLOSED_4_F1 ZN REHEAT COIL OUTLET WATER NODE,Water,1
 Node,316,CB_OFFICES_ENCLOSED_5_F1 ZN REHEAT COIL INLET WATER NODE,Water,1
 Node,317,CB_OFFICES_ENCLOSED_5_F1 ZN REHEAT COIL OUTLET WATER NODE,Water,1
 Node,318,CB_OFFICES_ENCLOSED_6_F1 ZN REHEAT COIL INLET WATER NODE,Water,1
 Node,319,CB_OFFICES_ENCLOSED_6_F1 ZN REHEAT COIL OUTLET WATER NODE,Water,1
 Node,320,CB_OFFICES_ENCLOSED_7_F1 ZN REHEAT COIL INLET WATER NODE,Water,1
 Node,321,CB_OFFICES_ENCLOSED_7_F1 ZN REHEAT COIL OUTLET WATER NODE,Water,1
 Node,322,CB_OFFICES_ENCLOSED_8_F1 ZN REHEAT COIL INLET WATER NODE,Water,1
 Node,323,CB_OFFICES_ENCLOSED_8_F1 ZN REHEAT COIL OUTLET WATER NODE,Water,1
 Node,324,CB_CAFE_STUDY_LOUNGE_F1 ZN REHEAT COIL INLET WATER NODE,Water,1
 Node,325,CB_CAFE_STUDY_LOUNGE_F1 ZN REHEAT COIL OUTLET WATER NODE,Water,1
 Node,326,CB_CONFERENCE_ROOM_F1 ZN REHEAT COIL INLET WATER NODE,Water,1
 Node,327,CB_CONFERENCE_ROOM_F1 ZN REHEAT COIL OUTLET WATER NODE,Water,1
 Node,328,CB_CORRIDOR_F1 ZN REHEAT COIL INLET WATER NODE,Water,1
 Node,329,CB_CORRIDOR_F1 ZN REHEAT COIL OUTLET WATER NODE,Water,1
 Node,330,CB_ENTRANCE_LOBBY_F1 ZN REHEAT COIL INLET WATER NODE,Water,1
 Node,331,CB_ENTRANCE_LOBBY_F1 ZN REHEAT COIL OUTLET WATER NODE,Water,1
 Node,332,CB_LECTURE_ROOM_1_F1 ZN REHEAT COIL INLET WATER NODE,Water,1
 Node,333,CB_LECTURE_ROOM_1_F1 ZN REHEAT COIL OUTLET WATER NODE,Water,1
 Node,334,CB_LECTURE_ROOM_2_F1 ZN REHEAT COIL INLET WATER NODE,Water,1
 Node,335,CB_LECTURE_ROOM_2_F1 ZN REHEAT COIL OUTLET WATER NODE,Water,1
 Node,336,CB_LIBRARY_MEDIA_CENTER_F1 ZN REHEAT COIL INLET WATER NODE,Water,1
 Node,337,CB_LIBRARY_MEDIA_CENTER_F1 ZN REHEAT COIL OUTLET WATER NODE,Water,1
 Node,338,CB_MAIN_STAIRS_F1 ZN REHEAT COIL INLET WATER NODE,Water,1
 Node,339,CB_MAIN_STAIRS_F1 ZN REHEAT COIL OUTLET WATER NODE,Water,1
 Node,340,CB_OFFICES_OPEN_F1 ZN REHEAT COIL INLET WATER NODE,Water,1
 Node,341,CB_OFFICES_OPEN_F1 ZN REHEAT COIL OUTLET WATER NODE,Water,1
 Node,342,CB_SECONDARY_STAIRS_1_F1 ZN REHEAT COIL INLET WATER NODE,Water,1
 Node,343,CB_SECONDARY_STAIRS_1_F1 ZN REHEAT COIL OUTLET WATER NODE,Water,1
 Node,344,CB_STAFF_RESTROOMS_1_F1 ZN REHEAT COIL INLET WATER NODE,Water,1
 Node,345,CB_STAFF_RESTROOMS_1_F1 ZN REHEAT COIL OUTLET WATER NODE,Water,1
 Node,346,CB_STAFF_RESTROOMS_2_F1 ZN REHEAT COIL INLET WATER NODE,Water,1
 Node,347,CB_STAFF_RESTROOMS_2_F1 ZN REHEAT COIL OUTLET WATER NODE,Water,1
 Node,348,CB_STORAGE_F1 ZN REHEAT COIL INLET WATER NODE,Water,1
 Node,349,CB_STORAGE_F1 ZN REHEAT COIL OUTLET WATER NODE,Water,1
 Node,350,CB_STUDENTS_RESTROOMS_1_F1 ZN REHEAT COIL INLET WATER NODE,Water,1
 Node,351,CB_STUDENTS_RESTROOMS_1_F1 ZN REHEAT COIL OUTLET WATER NODE,Water,1
 Node,352,CB_STUDENTS_RESTROOMS_2_F1 ZN REHEAT COIL INLET WATER NODE,Water,1
 Node,353,CB_STUDENTS_RESTROOMS_2_F1 ZN REHEAT COIL OUTLET WATER NODE,Water,1
 Node,354,CB_UTILITY_F1 ZN REHEAT COIL INLET WATER NODE,Water,1
 Node,355,CB_UTILITY_F1 ZN REHEAT COIL OUTLET WATER NODE,Water,1
 Node,356,CB_SECONDARY_STAIRS_2_F1 ZN REHEAT COIL INLET WATER NODE,Water,1
 Node,357,CB_SECONDARY_STAIRS_2_F1 ZN REHEAT COIL OUTLET WATER NODE,Water,1
 Node,358,VAV_2 MAIN HTG COIL INLET WATER NODE,Water,2
 Node,359,VAV_2 MAIN HTG COIL OUTLET WATER NODE,Water,1
 Node,360,CB_FACULTY_OFFICE_1_F2 ZN REHEAT COIL INLET WATER NODE,Water,1
 Node,361,CB_FACULTY_OFFICE_1_F2 ZN REHEAT COIL OUTLET WATER NODE,Water,1
 Node,362,CB_FACULTY_OFFICE_2_F2 ZN REHEAT COIL INLET WATER NODE,Water,1
 Node,363,CB_FACULTY_OFFICE_2_F2 ZN REHEAT COIL OUTLET WATER NODE,Water,1
 Node,364,CB_FACULTY_OFFICE_3_F2 ZN REHEAT COIL INLET WATER NODE,Water,1
 Node,365,CB_FACULTY_OFFICE_3_F2 ZN REHEAT COIL OUTLET WATER NODE,Water,1
 Node,366,CB_FACULTY_OFFICE_4_F2 ZN REHEAT COIL INLET WATER NODE,Water,1
 Node,367,CB_FACULTY_OFFICE_4_F2 ZN REHEAT COIL OUTLET WATER NODE,Water,1
 Node,368,CB_FACULTY_OFFICE_5_F2 ZN REHEAT COIL INLET WATER NODE,Water,1
 Node,369,CB_FACULTY_OFFICE_5_F2 ZN REHEAT COIL OUTLET WATER NODE,Water,1
 Node,370,CB_FACULTY_OFFICE_6_F2 ZN REHEAT COIL INLET WATER NODE,Water,1
 Node,371,CB_FACULTY_OFFICE_6_F2 ZN REHEAT COIL OUTLET WATER NODE,Water,1
 Node,372,CB_FACULTY_OFFICE_7_F2 ZN REHEAT COIL INLET WATER NODE,Water,1
 Node,373,CB_FACULTY_OFFICE_7_F2 ZN REHEAT COIL OUTLET WATER NODE,Water,1
 Node,374,CB_FACULTY_OFFICE_8_F2 ZN REHEAT COIL INLET WATER NODE,Water,1
 Node,375,CB_FACULTY_OFFICE_8_F2 ZN REHEAT COIL OUTLET WATER NODE,Water,1
 Node,376,CB_CLASSROOM_1_F2 ZN REHEAT COIL INLET WATER NODE,Water,1
 Node,377,CB_CLASSROOM_1_F2 ZN REHEAT COIL OUTLET WATER NODE,Water,1
 Node,378,CB_CLASSROOM_2_F2 ZN REHEAT COIL INLET WATER NODE,Water,1
 Node,379,CB_CLASSROOM_2_F2 ZN REHEAT COIL OUTLET WATER NODE,Water,1
 Node,380,CB_CLASSROOM_3_F2 ZN REHEAT COIL INLET WATER NODE,Water,1
 Node,381,CB_CLASSROOM_3_F2 ZN REHEAT COIL OUTLET WATER NODE,Water,1
 Node,382,CB_CLASSROOM_4_F2 ZN REHEAT COIL INLET WATER NODE,Water,1
 Node,383,CB_CLASSROOM_4_F2 ZN REHEAT COIL OUTLET WATER NODE,Water,1
 Node,384,CB_CLASSROOM_5_F2 ZN REHEAT COIL INLET WATER NODE,Water,1
 Node,385,CB_CLASSROOM_5_F2 ZN REHEAT COIL OUTLET WATER NODE,Water,1
 Node,386,CB_CLASSROOM_6_F2 ZN REHEAT COIL INLET WATER NODE,Water,1
 Node,387,CB_CLASSROOM_6_F2 ZN REHEAT COIL OUTLET WATER NODE,Water,1
 Node,388,CB_CLASSROOM_7_F2 ZN REHEAT COIL INLET WATER NODE,Water,1
 Node,389,CB_CLASSROOM_7_F2 ZN REHEAT COIL OUTLET WATER NODE,Water,1
 Node,390,CB_CLASSROOM_8_F2 ZN REHEAT COIL INLET WATER NODE,Water,1
 Node,391,CB_CLASSROOM_8_F2 ZN REHEAT COIL OUTLET WATER NODE,Water,1
 Node,392,CB_CONFERENCE_ROOM_F2 ZN REHEAT COIL INLET WATER NODE,Water,1
 Node,393,CB_CONFERENCE_ROOM_F2 ZN REHEAT COIL OUTLET WATER NODE,Water,1
 Node,394,CB_CORRIDOR_F2 ZN REHEAT COIL INLET WATER NODE,Water,1
 Node,395,CB_CORRIDOR_F2 ZN REHEAT COIL OUTLET WATER NODE,Water,1
 Node,396,CB_STUDIO_1_F2 ZN REHEAT COIL INLET WATER NODE,Water,1
 Node,397,CB_STUDIO_1_F2 ZN REHEAT COIL OUTLET WATER NODE,Water,1
 Node,398,CB_STUDIO_2_F2 ZN REHEAT COIL INLET WATER NODE,Water,1
 Node,399,CB_STUDIO_2_F2 ZN REHEAT COIL OUTLET WATER NODE,Water,1
 Node,400,CB_MAIN_STAIRS_F2 ZN REHEAT COIL INLET WATER NODE,Water,1
 Node,401,CB_MAIN_STAIRS_F2 ZN REHEAT COIL OUTLET WATER NODE,Water,1
 Node,402,CB_OFFICES_OPEN_F2 ZN REHEAT COIL INLET WATER NODE,Water,1
 Node,403,CB_OFFICES_OPEN_F2 ZN REHEAT COIL OUTLET WATER NODE,Water,1
 Node,404,CB_SECONDARY_STAIRS_1_F2 ZN REHEAT COIL INLET WATER NODE,Water,1
 Node,405,CB_SECONDARY_STAIRS_1_F2 ZN REHEAT COIL OUTLET WATER NODE,Water,1
 Node,406,CB_SECONDARY_STAIRS_2_F2 ZN REHEAT COIL INLET WATER NODE,Water,1
 Node,407,CB_SECONDARY_STAIRS_2_F2 ZN REHEAT COIL OUTLET WATER NODE,Water,1
 Node,408,CB_FACULTY_RESTROOMS_1_F2 ZN REHEAT COIL INLET WATER NODE,Water,1
 Node,409,CB_FACULTY_RESTROOMS_1_F2 ZN REHEAT COIL OUTLET WATER NODE,Water,1
 Node,410,CB_FACULTY_RESTROOMS_2_F2 ZN REHEAT COIL INLET WATER NODE,Water,1
 Node,411,CB_FACULTY_RESTROOMS_2_F2 ZN REHEAT COIL OUTLET WATER NODE,Water,1
 Node,412,CB_STUDENTS_RESTROOMS_1_F2 ZN REHEAT COIL INLET WATER NODE,Water,1
 Node,413,CB_STUDENTS_RESTROOMS_1_F2 ZN REHEAT COIL OUTLET WATER NODE,Water,1
 Node,414,CB_STUDENTS_RESTROOMS_2_F2 ZN REHEAT COIL INLET WATER NODE,Water,1
 Node,415,CB_STUDENTS_RESTROOMS_2_F2 ZN REHEAT COIL OUTLET WATER NODE,Water,1
 Node,416,CB_UTILITY_F2 ZN REHEAT COIL INLET WATER NODE,Water,1
 Node,417,CB_UTILITY_F2 ZN REHEAT COIL OUTLET WATER NODE,Water,1
 Node,418,VAV_3 MAIN HTG COIL INLET WATER NODE,Water,2
 Node,419,VAV_3 MAIN HTG COIL OUTLET WATER NODE,Water,1
 Node,420,CB_FACULTY_OFFICE_1_F3 ZN REHEAT COIL INLET WATER NODE,Water,1
 Node,421,CB_FACULTY_OFFICE_1_F3 ZN REHEAT COIL OUTLET WATER NODE,Water,1
 Node,422,CB_FACULTY_OFFICE_2_F3 ZN REHEAT COIL INLET WATER NODE,Water,1
 Node,423,CB_FACULTY_OFFICE_2_F3 ZN REHEAT COIL OUTLET WATER NODE,Water,1
 Node,424,CB_FACULTY_OFFICE_3_F3 ZN REHEAT COIL INLET WATER NODE,Water,1
 Node,425,CB_FACULTY_OFFICE_3_F3 ZN REHEAT COIL OUTLET WATER NODE,Water,1
 Node,426,CB_FACULTY_OFFICE_4_F3 ZN REHEAT COIL INLET WATER NODE,Water,1
 Node,427,CB_FACULTY_OFFICE_4_F3 ZN REHEAT COIL OUTLET WATER NODE,Water,1
 Node,428,CB_FACULTY_OFFICE_5_F3 ZN REHEAT COIL INLET WATER NODE,Water,1
 Node,429,CB_FACULTY_OFFICE_5_F3 ZN REHEAT COIL OUTLET WATER NODE,Water,1
 Node,430,CB_FACULTY_OFFICE_6_F3 ZN REHEAT COIL INLET WATER NODE,Water,1
 Node,431,CB_FACULTY_OFFICE_6_F3 ZN REHEAT COIL OUTLET WATER NODE,Water,1
 Node,432,CB_FACULTY_OFFICE_7_F3 ZN REHEAT COIL INLET WATER NODE,Water,1
 Node,433,CB_FACULTY_OFFICE_7_F3 ZN REHEAT COIL OUTLET WATER NODE,Water,1
 Node,434,CB_FACULTY_OFFICE_8_F3 ZN REHEAT COIL INLET WATER NODE,Water,1
 Node,435,CB_FACULTY_OFFICE_8_F3 ZN REHEAT COIL OUTLET WATER NODE,Water,1
 Node,436,CB_CLASSROOM_1_F3 ZN REHEAT COIL INLET WATER NODE,Water,1
 Node,437,CB_CLASSROOM_1_F3 ZN REHEAT COIL OUTLET WATER NODE,Water,1
 Node,438,CB_CLASSROOM_2_F3 ZN REHEAT COIL INLET WATER NODE,Water,1
 Node,439,CB_CLASSROOM_2_F3 ZN REHEAT COIL OUTLET WATER NODE,Water,1
 Node,440,CB_CLASSROOM_3_F3 ZN REHEAT COIL INLET WATER NODE,Water,1
 Node,441,CB_CLASSROOM_3_F3 ZN REHEAT COIL OUTLET WATER NODE,Water,1
 Node,442,CB_CLASSROOM_4_F3 ZN REHEAT COIL INLET WATER NODE,Water,1
 Node,443,CB_CLASSROOM_4_F3 ZN REHEAT COIL OUTLET WATER NODE,Water,1
 Node,444,CB_CLASSROOM_5_F3 ZN REHEAT COIL INLET WATER NODE,Water,1
 Node,445,CB_CLASSROOM_5_F3 ZN REHEAT COIL OUTLET WATER NODE,Water,1
 Node,446,CB_CLASSROOM_6_F3 ZN REHEAT COIL INLET WATER NODE,Water,1
 Node,447,CB_CLASSROOM_6_F3 ZN REHEAT COIL OUTLET WATER NODE,Water,1
 Node,448,CB_CLASSROOM_7_F3 ZN REHEAT COIL INLET WATER NODE,Water,1
 Node,449,CB_CLASSROOM_7_F3 ZN REHEAT COIL OUTLET WATER NODE,Water,1
 Node,450,CB_CLASSROOM_8_F3 ZN REHEAT COIL INLET WATER NODE,Water,1
 Node,451,CB_CLASSROOM_8_F3 ZN REHEAT COIL OUTLET WATER NODE,Water,1
 Node,452,CB_CONFERENCE_ROOM_F3 ZN REHEAT COIL INLET WATER NODE,Water,1
 Node,453,CB_CONFERENCE_ROOM_F3 ZN REHEAT COIL OUTLET WATER NODE,Water,1
 Node,454,CB_CORRIDOR_1_F3 ZN REHEAT COIL INLET WATER NODE,Water,1
 Node,455,CB_CORRIDOR_1_F3 ZN REHEAT COIL OUTLET WATER NODE,Water,1
 Node,456,CB_CORRIDOR_2_F3 ZN REHEAT COIL INLET WATER NODE,Water,1
 Node,457,CB_CORRIDOR_2_F3 ZN REHEAT COIL OUTLET WATER NODE,Water,1
 Node,458,CB_STUDIO_1_F3 ZN REHEAT COIL INLET WATER NODE,Water,1
 Node,459,CB_STUDIO_1_F3 ZN REHEAT COIL OUTLET WATER NODE,Water,1
 Node,460,CB_STUDIO_2_F3 ZN REHEAT COIL INLET WATER NODE,Water,1
 Node,461,CB_STUDIO_2_F3 ZN REHEAT COIL OUTLET WATER NODE,Water,1
 Node,462,CB_MAIN_STAIRS_F3 ZN REHEAT COIL INLET WATER NODE,Water,1
 Node,463,CB_MAIN_STAIRS_F3 ZN REHEAT COIL OUTLET WATER NODE,Water,1
 Node,464,CB_OFFICES_OPEN_F3 ZN REHEAT COIL INLET WATER NODE,Water,1
 Node,465,CB_OFFICES_OPEN_F3 ZN REHEAT COIL OUTLET WATER NODE,Water,1
 Node,466,CB_SECONDARY_STAIRS_1_F3 ZN REHEAT COIL INLET WATER NODE,Water,1
 Node,467,CB_SECONDARY_STAIRS_1_F3 ZN REHEAT COIL OUTLET WATER NODE,Water,1
 Node,468,CB_SECONDARY_STAIRS_2_F3 ZN REHEAT COIL INLET WATER NODE,Water,1
 Node,469,CB_SECONDARY_STAIRS_2_F3 ZN REHEAT COIL OUTLET WATER NODE,Water,1
 Node,470,CB_FACULTY_RESTROOMS_1_F3 ZN REHEAT COIL INLET WATER NODE,Water,1
 Node,471,CB_FACULTY_RESTROOMS_1_F3 ZN REHEAT COIL OUTLET WATER NODE,Water,1
 Node,472,CB_FACULTY_RESTROOMS_2_F3 ZN REHEAT COIL INLET WATER NODE,Water,1
 Node,473,CB_FACULTY_RESTROOMS_2_F3 ZN REHEAT COIL OUTLET WATER NODE,Water,1
 Node,474,CB_STUDENTS_RESTROOMS_1_F3 ZN REHEAT COIL INLET WATER NODE,Water,1
 Node,475,CB_STUDENTS_RESTROOMS_1_F3 ZN REHEAT COIL OUTLET WATER NODE,Water,1
 Node,476,CB_STUDENTS_RESTROOMS_2_F3 ZN REHEAT COIL INLET WATER NODE,Water,1
 Node,477,CB_STUDENTS_RESTROOMS_2_F3 ZN REHEAT COIL OUTLET WATER NODE,Water,1
 Node,478,CB_UTILITY_F3 ZN REHEAT COIL INLET WATER NODE,Water,1
 Node,479,CB_UTILITY_F3 ZN REHEAT COIL OUTLET WATER NODE,Water,1
 Node,480,VAV_4 MAIN HTG COIL INLET WATER NODE,Water,2
 Node,481,VAV_4 MAIN HTG COIL OUTLET WATER NODE,Water,1
 Node,482,CB_FACULTY_OFFICE_1_F4 ZN REHEAT COIL INLET WATER NODE,Water,1
 Node,483,CB_FACULTY_OFFICE_1_F4 ZN REHEAT COIL OUTLET WATER NODE,Water,1
 Node,484,CB_FACULTY_OFFICE_2_F4 ZN REHEAT COIL INLET WATER NODE,Water,1
 Node,485,CB_FACULTY_OFFICE_2_F4 ZN REHEAT COIL OUTLET WATER NODE,Water,1
 Node,486,CB_FACULTY_OFFICE_3_F4 ZN REHEAT COIL INLET WATER NODE,Water,1
 Node,487,CB_FACULTY_OFFICE_3_F4 ZN REHEAT COIL OUTLET WATER NODE,Water,1
 Node,488,CB_FACULTY_OFFICE_4_F4 ZN REHEAT COIL INLET WATER NODE,Water,1
 Node,489,CB_FACULTY_OFFICE_4_F4 ZN REHEAT COIL OUTLET WATER NODE,Water,1
 Node,490,CB_FACULTY_OFFICE_5_F4 ZN REHEAT COIL INLET WATER NODE,Water,1
 Node,491,CB_FACULTY_OFFICE_5_F4 ZN REHEAT COIL OUTLET WATER NODE,Water,1
 Node,492,CB_FACULTY_OFFICE_6_F4 ZN REHEAT COIL INLET WATER NODE,Water,1
 Node,493,CB_FACULTY_OFFICE_6_F4 ZN REHEAT COIL OUTLET WATER NODE,Water,1
 Node,494,CB_FACULTY_OFFICE_7_F4 ZN REHEAT COIL INLET WATER NODE,Water,1
 Node,495,CB_FACULTY_OFFICE_7_F4 ZN REHEAT COIL OUTLET WATER NODE,Water,1
 Node,496,CB_FACULTY_OFFICE_8_F4 ZN REHEAT COIL INLET WATER NODE,Water,1
 Node,497,CB_FACULTY_OFFICE_8_F4 ZN REHEAT COIL OUTLET WATER NODE,Water,1
 Node,498,CB_CLASSROOM_1_F4 ZN REHEAT COIL INLET WATER NODE,Water,1
 Node,499,CB_CLASSROOM_1_F4 ZN REHEAT COIL OUTLET WATER NODE,Water,1
 Node,500,CB_CLASSROOM_2_F4 ZN REHEAT COIL INLET WATER NODE,Water,1
 Node,501,CB_CLASSROOM_2_F4 ZN REHEAT COIL OUTLET WATER NODE,Water,1
 Node,502,CB_CLASSROOM_3_F4 ZN REHEAT COIL INLET WATER NODE,Water,1
 Node,503,CB_CLASSROOM_3_F4 ZN REHEAT COIL OUTLET WATER NODE,Water,1
 Node,504,CB_CLASSROOM_4_F4 ZN REHEAT COIL INLET WATER NODE,Water,1
 Node,505,CB_CLASSROOM_4_F4 ZN REHEAT COIL OUTLET WATER NODE,Water,1
 Node,506,CB_CLASSROOM_5_F4 ZN REHEAT COIL INLET WATER NODE,Water,1
 Node,507,CB_CLASSROOM_5_F4 ZN REHEAT COIL OUTLET WATER NODE,Water,1
 Node,508,CB_CLASSROOM_6_F4 ZN REHEAT COIL INLET WATER NODE,Water,1
 Node,509,CB_CLASSROOM_6_F4 ZN REHEAT COIL OUTLET WATER NODE,Water,1
 Node,510,CB_CONFERENCE_ROOM_F4 ZN REHEAT COIL INLET WATER NODE,Water,1
 Node,511,CB_CONFERENCE_ROOM_F4 ZN REHEAT COIL OUTLET WATER NODE,Water,1
 Node,512,CB_CORRIDOR_F4 ZN REHEAT COIL INLET WATER NODE,Water,1
 Node,513,CB_CORRIDOR_F4 ZN REHEAT COIL OUTLET WATER NODE,Water,1
 Node,514,CB_LAB_1_F4 ZN REHEAT COIL INLET WATER NODE,Water,1
 Node,515,CB_LAB_1_F4 ZN REHEAT COIL OUTLET WATER NODE,Water,1
 Node,516,CB_LAB_2_F4 ZN REHEAT COIL INLET WATER NODE,Water,1
 Node,517,CB_LAB_2_F4 ZN REHEAT COIL OUTLET WATER NODE,Water,1
 Node,518,CB_LAB_3_F4 ZN REHEAT COIL INLET WATER NODE,Water,1
 Node,519,CB_LAB_3_F4 ZN REHEAT COIL OUTLET WATER NODE,Water,1
 Node,520,CB_LAB_4_F4 ZN REHEAT COIL INLET WATER NODE,Water,1
 Node,521,CB_LAB_4_F4 ZN REHEAT COIL OUTLET WATER NODE,Water,1
 Node,522,CB_MAIN_STAIRS_F4 ZN REHEAT COIL INLET WATER NODE,Water,1
 Node,523,CB_MAIN_STAIRS_F4 ZN REHEAT COIL OUTLET WATER NODE,Water,1
 Node,524,CB_OFFICES_OPEN_F4 ZN REHEAT COIL INLET WATER NODE,Water,1
 Node,525,CB_OFFICES_OPEN_F4 ZN REHEAT COIL OUTLET WATER NODE,Water,1
 Node,526,CB_SECONDARY_STAIRS_1_F4 ZN REHEAT COIL INLET WATER NODE,Water,1
 Node,527,CB_SECONDARY_STAIRS_1_F4 ZN REHEAT COIL OUTLET WATER NODE,Water,1
 Node,528,CB_SECONDARY_STAIRS_2_F4 ZN REHEAT COIL INLET WATER NODE,Water,1
 Node,529,CB_SECONDARY_STAIRS_2_F4 ZN REHEAT COIL OUTLET WATER NODE,Water,1
 Node,530,CB_FACULTY_RESTROOMS_1_F4 ZN REHEAT COIL INLET WATER NODE,Water,1
 Node,531,CB_FACULTY_RESTROOMS_1_F4 ZN REHEAT COIL OUTLET WATER NODE,Water,1
 Node,532,CB_FACULTY_RESTROOMS_2_F4 ZN REHEAT COIL INLET WATER NODE,Water,1
 Node,533,CB_FACULTY_RESTROOMS_2_F4 ZN REHEAT COIL OUTLET WATER NODE,Water,1
 Node,534,CB_STUDENTS_RESTROOMS_1_F4 ZN REHEAT COIL INLET WATER NODE,Water,1
 Node,535,CB_STUDENTS_RESTROOMS_1_F4 ZN REHEAT COIL OUTLET WATER NODE,Water,1
 Node,536,CB_STUDENTS_RESTROOMS_2_F4 ZN REHEAT COIL INLET WATER NODE,Water,1
 Node,537,CB_STUDENTS_RESTROOMS_2_F4 ZN REHEAT COIL OUTLET WATER NODE,Water,1
 Node,538,CB_UTILITY_F4 ZN REHEAT COIL INLET WATER NODE,Water,1
 Node,539,CB_UTILITY_F4 ZN REHEAT COIL OUTLET WATER NODE,Water,1
 Node,540,HOT WATER LOOP DEMAND BYPASS PIPE INLET NODE,Water,1
 Node,541,HOT WATER LOOP DEMAND BYPASS PIPE OUTLET NODE,Water,1
 Node,542,HOT WATER LOOP DEMAND OUTLET INLET WATER NODE,Water,1
 Node,543,HOT WATER LOOP DEMAND OUTLET NODE,Water,2
 Node,544,MAIN SERVICE WATER LOOP SUPPLY INLET NODE,Water,2
 Node,545,MAIN SERVICE WATER LOOP CIRCULATOR PUMP OUTLET WATER NODE,Water,1
 Node,546,300GAL NATURAL GAS WATER HEATER - 300KBTU/HR 0.804 THERM EFF SUPPLY INLET WATER NODE,Water,1
 Node,547,300GAL NATURAL GAS WATER HEATER - 300KBTU/HR 0.804 THERM EFF SUPPLY OUTLET WATER NODE,Water,1
 Node,548,PIPE ADIABATIC 1 INLET WATER NODE,Water,1
 Node,549,PIPE ADIABATIC 1 OUTLET WATER NODE,Water,1
 Node,550,PIPE ADIABATIC 3 INLET WATER NODE,Water,1
 Node,551,MAIN SERVICE WATER LOOP SUPPLY OUTLET NODE,Water,4
 Node,552,MAIN SERVICE WATER LOOP DEMAND INLET NODE,Water,2
 Node,553,MAIN SERVICE WATER LOOP DEMAND INLET PIPE NODE,Water,1
 Node,554,PIPE ADIABATIC 2 INLET WATER NODE,Water,1
 Node,555,PIPE ADIABATIC 2 OUTLET WATER NODE,Water,1
 Node,556,MAIN WUC 0.58GPM AT 140F INLET WATER NODE,Water,1
 Node,557,MAIN WUC 0.58GPM AT 140F OUTLET WATER NODE,Water,1
 Node,558,MAIN SERVICE WATER LOOP DEMAND BYPASS PIPE INLET NODE,Water,1
 Node,559,MAIN SERVICE WATER LOOP DEMAND BYPASS PIPE OUTLET NODE,Water,1
 Node,560,PIPE ADIABATIC 4 INLET WATER NODE,Water,1
 Node,561,MAIN SERVICE WATER LOOP DEMAND OUTLET NODE,Water,2
 Node,562,CB_CAFE_STUDY_LOUNGE_F1 ZN ZONE AIR NODE,Air,0
 Node,563,CB_CLASSROOM_1_F2 ZN ZONE AIR NODE,Air,0
 Node,564,CB_CLASSROOM_1_F3 ZN ZONE AIR NODE,Air,0
 Node,565,CB_CLASSROOM_1_F4 ZN ZONE AIR NODE,Air,0
 Node,566,CB_CLASSROOM_2_F2 ZN ZONE AIR NODE,Air,0
 Node,567,CB_CLASSROOM_2_F3 ZN ZONE AIR NODE,Air,0
 Node,568,CB_CLASSROOM_2_F4 ZN ZONE AIR NODE,Air,0
 Node,569,CB_CLASSROOM_3_F2 ZN ZONE AIR NODE,Air,0
 Node,570,CB_CLASSROOM_3_F3 ZN ZONE AIR NODE,Air,0
 Node,571,CB_CLASSROOM_3_F4 ZN ZONE AIR NODE,Air,0
 Node,572,CB_CLASSROOM_4_F2 ZN ZONE AIR NODE,Air,0
 Node,573,CB_CLASSROOM_4_F3 ZN ZONE AIR NODE,Air,0
 Node,574,CB_CLASSROOM_4_F4 ZN ZONE AIR NODE,Air,0
 Node,575,CB_CLASSROOM_5_F2 ZN ZONE AIR NODE,Air,0
 Node,576,CB_CLASSROOM_5_F3 ZN ZONE AIR NODE,Air,0
 Node,577,CB_CLASSROOM_5_F4 ZN ZONE AIR NODE,Air,0
 Node,578,CB_CLASSROOM_6_F2 ZN ZONE AIR NODE,Air,0
 Node,579,CB_CLASSROOM_6_F3 ZN ZONE AIR NODE,Air,0
 Node,580,CB_CLASSROOM_6_F4 ZN ZONE AIR NODE,Air,0
 Node,581,CB_CLASSROOM_7_F2 ZN ZONE AIR NODE,Air,0
 Node,582,CB_CLASSROOM_7_F3 ZN ZONE AIR NODE,Air,0
 Node,583,CB_CLASSROOM_8_F2 ZN ZONE AIR NODE,Air,0
 Node,584,CB_CLASSROOM_8_F3 ZN ZONE AIR NODE,Air,0
 Node,585,CB_CONFERENCE_ROOM_F1 ZN ZONE AIR NODE,Air,0
 Node,586,CB_CONFERENCE_ROOM_F2 ZN ZONE AIR NODE,Air,0
 Node,587,CB_CONFERENCE_ROOM_F3 ZN ZONE AIR NODE,Air,0
 Node,588,CB_CONFERENCE_ROOM_F4 ZN ZONE AIR NODE,Air,0
 Node,589,CB_CORRIDOR_1_F3 ZN ZONE AIR NODE,Air,0
 Node,590,CB_CORRIDOR_2_F3 ZN ZONE AIR NODE,Air,0
 Node,591,CB_CORRIDOR_F1 ZN ZONE AIR NODE,Air,0
 Node,592,CB_CORRIDOR_F2 ZN ZONE AIR NODE,Air,0
 Node,593,CB_CORRIDOR_F4 ZN ZONE AIR NODE,Air,0
 Node,594,CB_ENTRANCE_LOBBY_F1 ZN ZONE AIR NODE,Air,0
 Node,595,CB_FACULTY_OFFICE_1_F2 ZN ZONE AIR NODE,Air,0
 Node,596,CB_FACULTY_OFFICE_1_F3 ZN ZONE AIR NODE,Air,0
 Node,597,CB_FACULTY_OFFICE_1_F4 ZN ZONE AIR NODE,Air,0
 Node,598,CB_FACULTY_OFFICE_2_F2 ZN ZONE AIR NODE,Air,0
 Node,599,CB_FACULTY_OFFICE_2_F3 ZN ZONE AIR NODE,Air,0
 Node,600,CB_FACULTY_OFFICE_2_F4 ZN ZONE AIR NODE,Air,0
 Node,601,CB_FACULTY_OFFICE_3_F2 ZN ZONE AIR NODE,Air,0
 Node,602,CB_FACULTY_OFFICE_3_F3 ZN ZONE AIR NODE,Air,0
 Node,603,CB_FACULTY_OFFICE_3_F4 ZN ZONE AIR NODE,Air,0
 Node,604,CB_FACULTY_OFFICE_4_F2 ZN ZONE AIR NODE,Air,0
 Node,605,CB_FACULTY_OFFICE_4_F3 ZN ZONE AIR NODE,Air,0
 Node,606,CB_FACULTY_OFFICE_4_F4 ZN ZONE AIR NODE,Air,0
 Node,607,CB_FACULTY_OFFICE_5_F2 ZN ZONE AIR NODE,Air,0
 Node,608,CB_FACULTY_OFFICE_5_F3 ZN ZONE AIR NODE,Air,0
 Node,609,CB_FACULTY_OFFICE_5_F4 ZN ZONE AIR NODE,Air,0
 Node,610,CB_FACULTY_OFFICE_6_F2 ZN ZONE AIR NODE,Air,0
 Node,611,CB_FACULTY_OFFICE_6_F3 ZN ZONE AIR NODE,Air,0
 Node,612,CB_FACULTY_OFFICE_6_F4 ZN ZONE AIR NODE,Air,0
 Node,613,CB_FACULTY_OFFICE_7_F2 ZN ZONE AIR NODE,Air,0
 Node,614,CB_FACULTY_OFFICE_7_F3 ZN ZONE AIR NODE,Air,0
 Node,615,CB_FACULTY_OFFICE_7_F4 ZN ZONE AIR NODE,Air,0
 Node,616,CB_FACULTY_OFFICE_8_F2 ZN ZONE AIR NODE,Air,0
 Node,617,CB_FACULTY_OFFICE_8_F3 ZN ZONE AIR NODE,Air,0
 Node,618,CB_FACULTY_OFFICE_8_F4 ZN ZONE AIR NODE,Air,0
 Node,619,CB_FACULTY_RESTROOMS_1_F2 ZN ZONE AIR NODE,Air,0
 Node,620,CB_FACULTY_RESTROOMS_1_F3 ZN ZONE AIR NODE,Air,0
 Node,621,CB_FACULTY_RESTROOMS_1_F4 ZN ZONE AIR NODE,Air,0
 Node,622,CB_FACULTY_RESTROOMS_2_F2 ZN ZONE AIR NODE,Air,0
 Node,623,CB_FACULTY_RESTROOMS_2_F3 ZN ZONE AIR NODE,Air,0
 Node,624,CB_FACULTY_RESTROOMS_2_F4 ZN ZONE AIR NODE,Air,0
 Node,625,CB_LAB_1_F4 ZN ZONE AIR NODE,Air,0
 Node,626,CB_LAB_2_F4 ZN ZONE AIR NODE,Air,0
 Node,627,CB_LAB_3_F4 ZN ZONE AIR NODE,Air,0
 Node,628,CB_LAB_4_F4 ZN ZONE AIR NODE,Air,0
 Node,629,CB_LECTURE_ROOM_1_F1 ZN ZONE AIR NODE,Air,0
 Node,630,CB_LECTURE_ROOM_2_F1 ZN ZONE AIR NODE,Air,0
 Node,631,CB_LIBRARY_MEDIA_CENTER_F1 ZN ZONE AIR NODE,Air,0
 Node,632,CB_MAIN_STAIRS_F1 ZN ZONE AIR NODE,Air,0
 Node,633,CB_MAIN_STAIRS_F2 ZN ZONE AIR NODE,Air,0
 Node,634,CB_MAIN_STAIRS_F3 ZN ZONE AIR NODE,Air,0
 Node,635,CB_MAIN_STAIRS_F4 ZN ZONE AIR NODE,Air,0
 Node,636,CB_OFFICES_ENCLOSED_1_F1 ZN ZONE AIR NODE,Air,0
 Node,637,CB_OFFICES_ENCLOSED_2_F1 ZN ZONE AIR NODE,Air,0
 Node,638,CB_OFFICES_ENCLOSED_3_F1 ZN ZONE AIR NODE,Air,0
 Node,639,CB_OFFICES_ENCLOSED_4_F1 ZN ZONE AIR NODE,Air,0
 Node,640,CB_OFFICES_ENCLOSED_5_F1 ZN ZONE AIR NODE,Air,0
 Node,641,CB_OFFICES_ENCLOSED_6_F1 ZN ZONE AIR NODE,Air,0
 Node,642,CB_OFFICES_ENCLOSED_7_F1 ZN ZONE AIR NODE,Air,0
 Node,643,CB_OFFICES_ENCLOSED_8_F1 ZN ZONE AIR NODE,Air,0
 Node,644,CB_OFFICES_OPEN_F1 ZN ZONE AIR NODE,Air,0
 Node,645,CB_OFFICES_OPEN_F2 ZN ZONE AIR NODE,Air,0
 Node,646,CB_OFFICES_OPEN_F3 ZN ZONE AIR NODE,Air,0
 Node,647,CB_OFFICES_OPEN_F4 ZN ZONE AIR NODE,Air,0
 Node,648,CB_SECONDARY_STAIRS_1_F1 ZN ZONE AIR NODE,Air,0
 Node,649,CB_SECONDARY_STAIRS_1_F2 ZN ZONE AIR NODE,Air,0
 Node,650,CB_SECONDARY_STAIRS_1_F3 ZN ZONE AIR NODE,Air,0
 Node,651,CB_SECONDARY_STAIRS_1_F4 ZN ZONE AIR NODE,Air,0
 Node,652,CB_SECONDARY_STAIRS_2_F1 ZN ZONE AIR NODE,Air,0
 Node,653,CB_SECONDARY_STAIRS_2_F2 ZN ZONE AIR NODE,Air,0
 Node,654,CB_SECONDARY_STAIRS_2_F3 ZN ZONE AIR NODE,Air,0
 Node,655,CB_SECONDARY_STAIRS_2_F4 ZN ZONE AIR NODE,Air,0
 Node,656,CB_STAFF_RESTROOMS_1_F1 ZN ZONE AIR NODE,Air,0
 Node,657,CB_STAFF_RESTROOMS_2_F1 ZN ZONE AIR NODE,Air,0
 Node,658,CB_STORAGE_F1 ZN ZONE AIR NODE,Air,0
 Node,659,CB_STUDENTS_RESTROOMS_1_F1 ZN ZONE AIR NODE,Air,0
 Node,660,CB_STUDENTS_RESTROOMS_1_F2 ZN ZONE AIR NODE,Air,0
 Node,661,CB_STUDENTS_RESTROOMS_1_F3 ZN ZONE AIR NODE,Air,0
 Node,662,CB_STUDENTS_RESTROOMS_1_F4 ZN ZONE AIR NODE,Air,0
 Node,663,CB_STUDENTS_RESTROOMS_2_F1 ZN ZONE AIR NODE,Air,0
 Node,664,CB_STUDENTS_RESTROOMS_2_F2 ZN ZONE AIR NODE,Air,0
 Node,665,CB_STUDENTS_RESTROOMS_2_F3 ZN ZONE AIR NODE,Air,0
 Node,666,CB_STUDENTS_RESTROOMS_2_F4 ZN ZONE AIR NODE,Air,0
 Node,667,CB_STUDIO_1_F2 ZN ZONE AIR NODE,Air,0
 Node,668,CB_STUDIO_1_F3 ZN ZONE AIR NODE,Air,0
 Node,669,CB_STUDIO_2_F2 ZN ZONE AIR NODE,Air,0
 Node,670,CB_STUDIO_2_F3 ZN ZONE AIR NODE,Air,0
 Node,671,CB_UTILITY_F1 ZN ZONE AIR NODE,Air,0
 Node,672,CB_UTILITY_F2 ZN ZONE AIR NODE,Air,0
 Node,673,CB_UTILITY_F3 ZN ZONE AIR NODE,Air,0
 Node,674,CB_UTILITY_F4 ZN ZONE AIR NODE,Air,0
 Node,675,VAV_1 DEMAND OUTLET NODE,Air,2
 Node,676,VAV_2 DEMAND OUTLET NODE,Air,2
 Node,677,VAV_3 DEMAND OUTLET NODE,Air,2
 Node,678,VAV_4 DEMAND OUTLET NODE,Air,2
 Node,679,VAV_1 OUTDOOR AIR NODE,Air,2
 Node,680,VAV_2 OUTDOOR AIR NODE,Air,2
 Node,681,VAV_3 OUTDOOR AIR NODE,Air,2
 Node,682,VAV_4 OUTDOOR AIR NODE,Air,2
 Node,683,MODEL OUTDOOR AIR NODE,Air,0
 Node,684,CB_OFFICES_ENCLOSED_1_F1 ZN VAV TERMINAL INLET AIR NODE,Air,1
 Node,685,CB_OFFICES_ENCLOSED_2_F1 ZN VAV TERMINAL INLET AIR NODE,Air,1
 Node,686,CB_OFFICES_ENCLOSED_3_F1 ZN VAV TERMINAL INLET AIR NODE,Air,1
 Node,687,CB_OFFICES_ENCLOSED_4_F1 ZN VAV TERMINAL INLET AIR NODE,Air,1
 Node,688,CB_OFFICES_ENCLOSED_5_F1 ZN VAV TERMINAL INLET AIR NODE,Air,1
 Node,689,CB_OFFICES_ENCLOSED_6_F1 ZN VAV TERMINAL INLET AIR NODE,Air,1
 Node,690,CB_OFFICES_ENCLOSED_7_F1 ZN VAV TERMINAL INLET AIR NODE,Air,1
 Node,691,CB_OFFICES_ENCLOSED_8_F1 ZN VAV TERMINAL INLET AIR NODE,Air,1
 Node,692,CB_CAFE_STUDY_LOUNGE_F1 ZN VAV TERMINAL INLET AIR NODE,Air,1
 Node,693,CB_CONFERENCE_ROOM_F1 ZN VAV TERMINAL INLET AIR NODE,Air,1
 Node,694,CB_CORRIDOR_F1 ZN VAV TERMINAL INLET AIR NODE,Air,1
 Node,695,CB_ENTRANCE_LOBBY_F1 ZN VAV TERMINAL INLET AIR NODE,Air,1
 Node,696,CB_LECTURE_ROOM_1_F1 ZN VAV TERMINAL INLET AIR NODE,Air,1
 Node,697,CB_LECTURE_ROOM_2_F1 ZN VAV TERMINAL INLET AIR NODE,Air,1
 Node,698,CB_LIBRARY_MEDIA_CENTER_F1 ZN VAV TERMINAL INLET AIR NODE,Air,1
 Node,699,CB_MAIN_STAIRS_F1 ZN VAV TERMINAL INLET AIR NODE,Air,1
 Node,700,CB_OFFICES_OPEN_F1 ZN VAV TERMINAL INLET AIR NODE,Air,1
 Node,701,CB_SECONDARY_STAIRS_1_F1 ZN VAV TERMINAL INLET AIR NODE,Air,1
 Node,702,CB_STAFF_RESTROOMS_1_F1 ZN VAV TERMINAL INLET AIR NODE,Air,1
 Node,703,CB_STAFF_RESTROOMS_2_F1 ZN VAV TERMINAL INLET AIR NODE,Air,1
 Node,704,CB_STORAGE_F1 ZN VAV TERMINAL INLET AIR NODE,Air,1
 Node,705,CB_STUDENTS_RESTROOMS_1_F1 ZN VAV TERMINAL INLET AIR NODE,Air,1
 Node,706,CB_STUDENTS_RESTROOMS_2_F1 ZN VAV TERMINAL INLET AIR NODE,Air,1
 Node,707,CB_UTILITY_F1 ZN VAV TERMINAL INLET AIR NODE,Air,1
 Node,708,CB_SECONDARY_STAIRS_2_F1 ZN VAV TERMINAL INLET AIR NODE,Air,1
 Node,709,CB_FACULTY_OFFICE_1_F2 ZN VAV TERMINAL INLET AIR NODE,Air,1
 Node,710,CB_FACULTY_OFFICE_2_F2 ZN VAV TERMINAL INLET AIR NODE,Air,1
 Node,711,CB_FACULTY_OFFICE_3_F2 ZN VAV TERMINAL INLET AIR NODE,Air,1
 Node,712,CB_FACULTY_OFFICE_4_F2 ZN VAV TERMINAL INLET AIR NODE,Air,1
 Node,713,CB_FACULTY_OFFICE_5_F2 ZN VAV TERMINAL INLET AIR NODE,Air,1
 Node,714,CB_FACULTY_OFFICE_6_F2 ZN VAV TERMINAL INLET AIR NODE,Air,1
 Node,715,CB_FACULTY_OFFICE_7_F2 ZN VAV TERMINAL INLET AIR NODE,Air,1
 Node,716,CB_FACULTY_OFFICE_8_F2 ZN VAV TERMINAL INLET AIR NODE,Air,1
 Node,717,CB_CLASSROOM_1_F2 ZN VAV TERMINAL INLET AIR NODE,Air,1
 Node,718,CB_CLASSROOM_2_F2 ZN VAV TERMINAL INLET AIR NODE,Air,1
 Node,719,CB_CLASSROOM_3_F2 ZN VAV TERMINAL INLET AIR NODE,Air,1
 Node,720,CB_CLASSROOM_4_F2 ZN VAV TERMINAL INLET AIR NODE,Air,1
 Node,721,CB_CLASSROOM_5_F2 ZN VAV TERMINAL INLET AIR NODE,Air,1
 Node,722,CB_CLASSROOM_6_F2 ZN VAV TERMINAL INLET AIR NODE,Air,1
 Node,723,CB_CLASSROOM_7_F2 ZN VAV TERMINAL INLET AIR NODE,Air,1
 Node,724,CB_CLASSROOM_8_F2 ZN VAV TERMINAL INLET AIR NODE,Air,1
 Node,725,CB_CONFERENCE_ROOM_F2 ZN VAV TERMINAL INLET AIR NODE,Air,1
 Node,726,CB_CORRIDOR_F2 ZN VAV TERMINAL INLET AIR NODE,Air,1
 Node,727,CB_STUDIO_1_F2 ZN VAV TERMINAL INLET AIR NODE,Air,1
 Node,728,CB_STUDIO_2_F2 ZN VAV TERMINAL INLET AIR NODE,Air,1
 Node,729,CB_MAIN_STAIRS_F2 ZN VAV TERMINAL INLET AIR NODE,Air,1
 Node,730,CB_OFFICES_OPEN_F2 ZN VAV TERMINAL INLET AIR NODE,Air,1
 Node,731,CB_SECONDARY_STAIRS_1_F2 ZN VAV TERMINAL INLET AIR NODE,Air,1
 Node,732,CB_SECONDARY_STAIRS_2_F2 ZN VAV TERMINAL INLET AIR NODE,Air,1
 Node,733,CB_FACULTY_RESTROOMS_1_F2 ZN VAV TERMINAL INLET AIR NODE,Air,1
 Node,734,CB_FACULTY_RESTROOMS_2_F2 ZN VAV TERMINAL INLET AIR NODE,Air,1
 Node,735,CB_STUDENTS_RESTROOMS_1_F2 ZN VAV TERMINAL INLET AIR NODE,Air,1
 Node,736,CB_STUDENTS_RESTROOMS_2_F2 ZN VAV TERMINAL INLET AIR NODE,Air,1
 Node,737,CB_UTILITY_F2 ZN VAV TERMINAL INLET AIR NODE,Air,1
 Node,738,CB_FACULTY_OFFICE_1_F3 ZN VAV TERMINAL INLET AIR NODE,Air,1
 Node,739,CB_FACULTY_OFFICE_2_F3 ZN VAV TERMINAL INLET AIR NODE,Air,1
 Node,740,CB_FACULTY_OFFICE_3_F3 ZN VAV TERMINAL INLET AIR NODE,Air,1
 Node,741,CB_FACULTY_OFFICE_4_F3 ZN VAV TERMINAL INLET AIR NODE,Air,1
 Node,742,CB_FACULTY_OFFICE_5_F3 ZN VAV TERMINAL INLET AIR NODE,Air,1
 Node,743,CB_FACULTY_OFFICE_6_F3 ZN VAV TERMINAL INLET AIR NODE,Air,1
 Node,744,CB_FACULTY_OFFICE_7_F3 ZN VAV TERMINAL INLET AIR NODE,Air,1
 Node,745,CB_FACULTY_OFFICE_8_F3 ZN VAV TERMINAL INLET AIR NODE,Air,1
 Node,746,CB_CLASSROOM_1_F3 ZN VAV TERMINAL INLET AIR NODE,Air,1
 Node,747,CB_CLASSROOM_2_F3 ZN VAV TERMINAL INLET AIR NODE,Air,1
 Node,748,CB_CLASSROOM_3_F3 ZN VAV TERMINAL INLET AIR NODE,Air,1
 Node,749,CB_CLASSROOM_4_F3 ZN VAV TERMINAL INLET AIR NODE,Air,1
 Node,750,CB_CLASSROOM_5_F3 ZN VAV TERMINAL INLET AIR NODE,Air,1
 Node,751,CB_CLASSROOM_6_F3 ZN VAV TERMINAL INLET AIR NODE,Air,1
 Node,752,CB_CLASSROOM_7_F3 ZN VAV TERMINAL INLET AIR NODE,Air,1
 Node,753,CB_CLASSROOM_8_F3 ZN VAV TERMINAL INLET AIR NODE,Air,1
 Node,754,CB_CONFERENCE_ROOM_F3 ZN VAV TERMINAL INLET AIR NODE,Air,1
 Node,755,CB_CORRIDOR_1_F3 ZN VAV TERMINAL INLET AIR NODE,Air,1
 Node,756,CB_CORRIDOR_2_F3 ZN VAV TERMINAL INLET AIR NODE,Air,1
 Node,757,CB_STUDIO_1_F3 ZN VAV TERMINAL INLET AIR NODE,Air,1
 Node,758,CB_STUDIO_2_F3 ZN VAV TERMINAL INLET AIR NODE,Air,1
 Node,759,CB_MAIN_STAIRS_F3 ZN VAV TERMINAL INLET AIR NODE,Air,1
 Node,760,CB_OFFICES_OPEN_F3 ZN VAV TERMINAL INLET AIR NODE,Air,1
 Node,761,CB_SECONDARY_STAIRS_1_F3 ZN VAV TERMINAL INLET AIR NODE,Air,1
 Node,762,CB_SECONDARY_STAIRS_2_F3 ZN VAV TERMINAL INLET AIR NODE,Air,1
 Node,763,CB_FACULTY_RESTROOMS_1_F3 ZN VAV TERMINAL INLET AIR NODE,Air,1
 Node,764,CB_FACULTY_RESTROOMS_2_F3 ZN VAV TERMINAL INLET AIR NODE,Air,1
 Node,765,CB_STUDENTS_RESTROOMS_1_F3 ZN VAV TERMINAL INLET AIR NODE,Air,1
 Node,766,CB_STUDENTS_RESTROOMS_2_F3 ZN VAV TERMINAL INLET AIR NODE,Air,1
 Node,767,CB_UTILITY_F3 ZN VAV TERMINAL INLET AIR NODE,Air,1
 Node,768,CB_FACULTY_OFFICE_1_F4 ZN VAV TERMINAL INLET AIR NODE,Air,1
 Node,769,CB_FACULTY_OFFICE_2_F4 ZN VAV TERMINAL INLET AIR NODE,Air,1
 Node,770,CB_FACULTY_OFFICE_3_F4 ZN VAV TERMINAL INLET AIR NODE,Air,1
 Node,771,CB_FACULTY_OFFICE_4_F4 ZN VAV TERMINAL INLET AIR NODE,Air,1
 Node,772,CB_FACULTY_OFFICE_5_F4 ZN VAV TERMINAL INLET AIR NODE,Air,1
 Node,773,CB_FACULTY_OFFICE_6_F4 ZN VAV TERMINAL INLET AIR NODE,Air,1
 Node,774,CB_FACULTY_OFFICE_7_F4 ZN VAV TERMINAL INLET AIR NODE,Air,1
 Node,775,CB_FACULTY_OFFICE_8_F4 ZN VAV TERMINAL INLET AIR NODE,Air,1
 Node,776,CB_CLASSROOM_1_F4 ZN VAV TERMINAL INLET AIR NODE,Air,1
 Node,777,CB_CLASSROOM_2_F4 ZN VAV TERMINAL INLET AIR NODE,Air,1
 Node,778,CB_CLASSROOM_3_F4 ZN VAV TERMINAL INLET AIR NODE,Air,1
 Node,779,CB_CLASSROOM_4_F4 ZN VAV TERMINAL INLET AIR NODE,Air,1
 Node,780,CB_CLASSROOM_5_F4 ZN VAV TERMINAL INLET AIR NODE,Air,1
 Node,781,CB_CLASSROOM_6_F4 ZN VAV TERMINAL INLET AIR NODE,Air,1
 Node,782,CB_CONFERENCE_ROOM_F4 ZN VAV TERMINAL INLET AIR NODE,Air,1
 Node,783,CB_CORRIDOR_F4 ZN VAV TERMINAL INLET AIR NODE,Air,1
 Node,784,CB_LAB_1_F4 ZN VAV TERMINAL INLET AIR NODE,Air,1
 Node,785,CB_LAB_2_F4 ZN VAV TERMINAL INLET AIR NODE,Air,1
 Node,786,CB_LAB_3_F4 ZN VAV TERMINAL INLET AIR NODE,Air,1
 Node,787,CB_LAB_4_F4 ZN VAV TERMINAL INLET AIR NODE,Air,1
 Node,788,CB_MAIN_STAIRS_F4 ZN VAV TERMINAL INLET AIR NODE,Air,1
 Node,789,CB_OFFICES_OPEN_F4 ZN VAV TERMINAL INLET AIR NODE,Air,1
 Node,790,CB_SECONDARY_STAIRS_1_F4 ZN VAV TERMINAL INLET AIR NODE,Air,1
 Node,791,CB_SECONDARY_STAIRS_2_F4 ZN VAV TERMINAL INLET AIR NODE,Air,1
 Node,792,CB_FACULTY_RESTROOMS_1_F4 ZN VAV TERMINAL INLET AIR NODE,Air,1
 Node,793,CB_FACULTY_RESTROOMS_2_F4 ZN VAV TERMINAL INLET AIR NODE,Air,1
 Node,794,CB_STUDENTS_RESTROOMS_1_F4 ZN VAV TERMINAL INLET AIR NODE,Air,1
 Node,795,CB_STUDENTS_RESTROOMS_2_F4 ZN VAV TERMINAL INLET AIR NODE,Air,1
 Node,796,CB_UTILITY_F4 ZN VAV TERMINAL INLET AIR NODE,Air,1
 Node,797,CB_CAFE_STUDY_LOUNGE_F1 ZN VAV TERMINAL DAMPER OUTLET,Air,1
 Node,798,CB_CLASSROOM_1_F2 ZN VAV TERMINAL DAMPER OUTLET,Air,1
 Node,799,CB_CLASSROOM_1_F3 ZN VAV TERMINAL DAMPER OUTLET,Air,1
 Node,800,CB_CLASSROOM_1_F4 ZN VAV TERMINAL DAMPER OUTLET,Air,1
 Node,801,CB_CLASSROOM_2_F2 ZN VAV TERMINAL DAMPER OUTLET,Air,1
 Node,802,CB_CLASSROOM_2_F3 ZN VAV TERMINAL DAMPER OUTLET,Air,1
 Node,803,CB_CLASSROOM_2_F4 ZN VAV TERMINAL DAMPER OUTLET,Air,1
 Node,804,CB_CLASSROOM_3_F2 ZN VAV TERMINAL DAMPER OUTLET,Air,1
 Node,805,CB_CLASSROOM_3_F3 ZN VAV TERMINAL DAMPER OUTLET,Air,1
 Node,806,CB_CLASSROOM_3_F4 ZN VAV TERMINAL DAMPER OUTLET,Air,1
 Node,807,CB_CLASSROOM_4_F2 ZN VAV TERMINAL DAMPER OUTLET,Air,1
 Node,808,CB_CLASSROOM_4_F3 ZN VAV TERMINAL DAMPER OUTLET,Air,1
 Node,809,CB_CLASSROOM_4_F4 ZN VAV TERMINAL DAMPER OUTLET,Air,1
 Node,810,CB_CLASSROOM_5_F2 ZN VAV TERMINAL DAMPER OUTLET,Air,1
 Node,811,CB_CLASSROOM_5_F3 ZN VAV TERMINAL DAMPER OUTLET,Air,1
 Node,812,CB_CLASSROOM_5_F4 ZN VAV TERMINAL DAMPER OUTLET,Air,1
 Node,813,CB_CLASSROOM_6_F2 ZN VAV TERMINAL DAMPER OUTLET,Air,1
 Node,814,CB_CLASSROOM_6_F3 ZN VAV TERMINAL DAMPER OUTLET,Air,1
 Node,815,CB_CLASSROOM_6_F4 ZN VAV TERMINAL DAMPER OUTLET,Air,1
 Node,816,CB_CLASSROOM_7_F2 ZN VAV TERMINAL DAMPER OUTLET,Air,1
 Node,817,CB_CLASSROOM_7_F3 ZN VAV TERMINAL DAMPER OUTLET,Air,1
 Node,818,CB_CLASSROOM_8_F2 ZN VAV TERMINAL DAMPER OUTLET,Air,1
 Node,819,CB_CLASSROOM_8_F3 ZN VAV TERMINAL DAMPER OUTLET,Air,1
 Node,820,CB_CONFERENCE_ROOM_F1 ZN VAV TERMINAL DAMPER OUTLET,Air,1
 Node,821,CB_CONFERENCE_ROOM_F2 ZN VAV TERMINAL DAMPER OUTLET,Air,1
 Node,822,CB_CONFERENCE_ROOM_F3 ZN VAV TERMINAL DAMPER OUTLET,Air,1
 Node,823,CB_CONFERENCE_ROOM_F4 ZN VAV TERMINAL DAMPER OUTLET,Air,1
 Node,824,CB_CORRIDOR_1_F3 ZN VAV TERMINAL DAMPER OUTLET,Air,1
 Node,825,CB_CORRIDOR_2_F3 ZN VAV TERMINAL DAMPER OUTLET,Air,1
 Node,826,CB_CORRIDOR_F1 ZN VAV TERMINAL DAMPER OUTLET,Air,1
 Node,827,CB_CORRIDOR_F2 ZN VAV TERMINAL DAMPER OUTLET,Air,1
 Node,828,CB_CORRIDOR_F4 ZN VAV TERMINAL DAMPER OUTLET,Air,1
 Node,829,CB_ENTRANCE_LOBBY_F1 ZN VAV TERMINAL DAMPER OUTLET,Air,1
 Node,830,CB_FACULTY_OFFICE_1_F2 ZN VAV TERMINAL DAMPER OUTLET,Air,1
 Node,831,CB_FACULTY_OFFICE_1_F3 ZN VAV TERMINAL DAMPER OUTLET,Air,1
 Node,832,CB_FACULTY_OFFICE_1_F4 ZN VAV TERMINAL DAMPER OUTLET,Air,1
 Node,833,CB_FACULTY_OFFICE_2_F2 ZN VAV TERMINAL DAMPER OUTLET,Air,1
 Node,834,CB_FACULTY_OFFICE_2_F3 ZN VAV TERMINAL DAMPER OUTLET,Air,1
 Node,835,CB_FACULTY_OFFICE_2_F4 ZN VAV TERMINAL DAMPER OUTLET,Air,1
 Node,836,CB_FACULTY_OFFICE_3_F2 ZN VAV TERMINAL DAMPER OUTLET,Air,1
 Node,837,CB_FACULTY_OFFICE_3_F3 ZN VAV TERMINAL DAMPER OUTLET,Air,1
 Node,838,CB_FACULTY_OFFICE_3_F4 ZN VAV TERMINAL DAMPER OUTLET,Air,1
 Node,839,CB_FACULTY_OFFICE_4_F2 ZN VAV TERMINAL DAMPER OUTLET,Air,1
 Node,840,CB_FACULTY_OFFICE_4_F3 ZN VAV TERMINAL DAMPER OUTLET,Air,1
 Node,841,CB_FACULTY_OFFICE_4_F4 ZN VAV TERMINAL DAMPER OUTLET,Air,1
 Node,842,CB_FACULTY_OFFICE_5_F2 ZN VAV TERMINAL DAMPER OUTLET,Air,1
 Node,843,CB_FACULTY_OFFICE_5_F3 ZN VAV TERMINAL DAMPER OUTLET,Air,1
 Node,844,CB_FACULTY_OFFICE_5_F4 ZN VAV TERMINAL DAMPER OUTLET,Air,1
 Node,845,CB_FACULTY_OFFICE_6_F2 ZN VAV TERMINAL DAMPER OUTLET,Air,1
 Node,846,CB_FACULTY_OFFICE_6_F3 ZN VAV TERMINAL DAMPER OUTLET,Air,1
 Node,847,CB_FACULTY_OFFICE_6_F4 ZN VAV TERMINAL DAMPER OUTLET,Air,1
 Node,848,CB_FACULTY_OFFICE_7_F2 ZN VAV TERMINAL DAMPER OUTLET,Air,1
 Node,849,CB_FACULTY_OFFICE_7_F3 ZN VAV TERMINAL DAMPER OUTLET,Air,1
 Node,850,CB_FACULTY_OFFICE_7_F4 ZN VAV TERMINAL DAMPER OUTLET,Air,1
 Node,851,CB_FACULTY_OFFICE_8_F2 ZN VAV TERMINAL DAMPER OUTLET,Air,1
 Node,852,CB_FACULTY_OFFICE_8_F3 ZN VAV TERMINAL DAMPER OUTLET,Air,1
 Node,853,CB_FACULTY_OFFICE_8_F4 ZN VAV TERMINAL DAMPER OUTLET,Air,1
 Node,854,CB_FACULTY_RESTROOMS_1_F2 ZN VAV TERMINAL DAMPER OUTLET,Air,1
 Node,855,CB_FACULTY_RESTROOMS_1_F3 ZN VAV TERMINAL DAMPER OUTLET,Air,1
 Node,856,CB_FACULTY_RESTROOMS_1_F4 ZN VAV TERMINAL DAMPER OUTLET,Air,1
 Node,857,CB_FACULTY_RESTROOMS_2_F2 ZN VAV TERMINAL DAMPER OUTLET,Air,1
 Node,858,CB_FACULTY_RESTROOMS_2_F3 ZN VAV TERMINAL DAMPER OUTLET,Air,1
 Node,859,CB_FACULTY_RESTROOMS_2_F4 ZN VAV TERMINAL DAMPER OUTLET,Air,1
 Node,860,CB_LAB_1_F4 ZN VAV TERMINAL DAMPER OUTLET,Air,1
 Node,861,CB_LAB_2_F4 ZN VAV TERMINAL DAMPER OUTLET,Air,1
 Node,862,CB_LAB_3_F4 ZN VAV TERMINAL DAMPER OUTLET,Air,1
 Node,863,CB_LAB_4_F4 ZN VAV TERMINAL DAMPER OUTLET,Air,1
 Node,864,CB_LECTURE_ROOM_1_F1 ZN VAV TERMINAL DAMPER OUTLET,Air,1
 Node,865,CB_LECTURE_ROOM_2_F1 ZN VAV TERMINAL DAMPER OUTLET,Air,1
 Node,866,CB_LIBRARY_MEDIA_CENTER_F1 ZN VAV TERMINAL DAMPER OUTLET,Air,1
 Node,867,CB_MAIN_STAIRS_F1 ZN VAV TERMINAL DAMPER OUTLET,Air,1
 Node,868,CB_MAIN_STAIRS_F2 ZN VAV TERMINAL DAMPER OUTLET,Air,1
 Node,869,CB_MAIN_STAIRS_F3 ZN VAV TERMINAL DAMPER OUTLET,Air,1
 Node,870,CB_MAIN_STAIRS_F4 ZN VAV TERMINAL DAMPER OUTLET,Air,1
 Node,871,CB_OFFICES_ENCLOSED_1_F1 ZN VAV TERMINAL DAMPER OUTLET,Air,1
 Node,872,CB_OFFICES_ENCLOSED_2_F1 ZN VAV TERMINAL DAMPER OUTLET,Air,1
 Node,873,CB_OFFICES_ENCLOSED_3_F1 ZN VAV TERMINAL DAMPER OUTLET,Air,1
 Node,874,CB_OFFICES_ENCLOSED_4_F1 ZN VAV TERMINAL DAMPER OUTLET,Air,1
 Node,875,CB_OFFICES_ENCLOSED_5_F1 ZN VAV TERMINAL DAMPER OUTLET,Air,1
 Node,876,CB_OFFICES_ENCLOSED_6_F1 ZN VAV TERMINAL DAMPER OUTLET,Air,1
 Node,877,CB_OFFICES_ENCLOSED_7_F1 ZN VAV TERMINAL DAMPER OUTLET,Air,1
 Node,878,CB_OFFICES_ENCLOSED_8_F1 ZN VAV TERMINAL DAMPER OUTLET,Air,1
 Node,879,CB_OFFICES_OPEN_F1 ZN VAV TERMINAL DAMPER OUTLET,Air,1
 Node,880,CB_OFFICES_OPEN_F2 ZN VAV TERMINAL DAMPER OUTLET,Air,1
 Node,881,CB_OFFICES_OPEN_F3 ZN VAV TERMINAL DAMPER OUTLET,Air,1
 Node,882,CB_OFFICES_OPEN_F4 ZN VAV TERMINAL DAMPER OUTLET,Air,1
 Node,883,CB_SECONDARY_STAIRS_1_F1 ZN VAV TERMINAL DAMPER OUTLET,Air,1
 Node,884,CB_SECONDARY_STAIRS_1_F2 ZN VAV TERMINAL DAMPER OUTLET,Air,1
 Node,885,CB_SECONDARY_STAIRS_1_F3 ZN VAV TERMINAL DAMPER OUTLET,Air,1
 Node,886,CB_SECONDARY_STAIRS_1_F4 ZN VAV TERMINAL DAMPER OUTLET,Air,1
 Node,887,CB_SECONDARY_STAIRS_2_F1 ZN VAV TERMINAL DAMPER OUTLET,Air,1
 Node,888,CB_SECONDARY_STAIRS_2_F2 ZN VAV TERMINAL DAMPER OUTLET,Air,1
 Node,889,CB_SECONDARY_STAIRS_2_F3 ZN VAV TERMINAL DAMPER OUTLET,Air,1
 Node,890,CB_SECONDARY_STAIRS_2_F4 ZN VAV TERMINAL DAMPER OUTLET,Air,1
 Node,891,CB_STAFF_RESTROOMS_1_F1 ZN VAV TERMINAL DAMPER OUTLET,Air,1
 Node,892,CB_STAFF_RESTROOMS_2_F1 ZN VAV TERMINAL DAMPER OUTLET,Air,1
 Node,893,CB_STORAGE_F1 ZN VAV TERMINAL DAMPER OUTLET,Air,1
 Node,894,CB_STUDENTS_RESTROOMS_1_F1 ZN VAV TERMINAL DAMPER OUTLET,Air,1
 Node,895,CB_STUDENTS_RESTROOMS_1_F2 ZN VAV TERMINAL DAMPER OUTLET,Air,1
 Node,896,CB_STUDENTS_RESTROOMS_1_F3 ZN VAV TERMINAL DAMPER OUTLET,Air,1
 Node,897,CB_STUDENTS_RESTROOMS_1_F4 ZN VAV TERMINAL DAMPER OUTLET,Air,1
 Node,898,CB_STUDENTS_RESTROOMS_2_F1 ZN VAV TERMINAL DAMPER OUTLET,Air,1
 Node,899,CB_STUDENTS_RESTROOMS_2_F2 ZN VAV TERMINAL DAMPER OUTLET,Air,1
 Node,900,CB_STUDENTS_RESTROOMS_2_F3 ZN VAV TERMINAL DAMPER OUTLET,Air,1
 Node,901,CB_STUDENTS_RESTROOMS_2_F4 ZN VAV TERMINAL DAMPER OUTLET,Air,1
 Node,902,CB_STUDIO_1_F2 ZN VAV TERMINAL DAMPER OUTLET,Air,1
 Node,903,CB_STUDIO_1_F3 ZN VAV TERMINAL DAMPER OUTLET,Air,1
 Node,904,CB_STUDIO_2_F2 ZN VAV TERMINAL DAMPER OUTLET,Air,1
 Node,905,CB_STUDIO_2_F3 ZN VAV TERMINAL DAMPER OUTLET,Air,1
 Node,906,CB_UTILITY_F1 ZN VAV TERMINAL DAMPER OUTLET,Air,1
 Node,907,CB_UTILITY_F2 ZN VAV TERMINAL DAMPER OUTLET,Air,1
 Node,908,CB_UTILITY_F3 ZN VAV TERMINAL DAMPER OUTLET,Air,1
 Node,909,CB_UTILITY_F4 ZN VAV TERMINAL DAMPER OUTLET,Air,1
 Node,910,VAV_1 RELIEF AIR NODE,Air,1
 Node,911,VAV_2 RELIEF AIR NODE,Air,1
 Node,912,VAV_3 RELIEF AIR NODE,Air,1
 Node,913,VAV_4 RELIEF AIR NODE,Air,1
! ===============================================================
! Suspicious nodes have 0 references.  It is normal for some nodes, however.
! Listing nodes with 0 references (culled from previous list):
! <Suspicious Node>,<NodeNumber>,<Node Name>,<Node Fluid Type>,<# Times Node Referenced After Definition>
 Suspicious Node,562,CB_CAFE_STUDY_LOUNGE_F1 ZN ZONE AIR NODE,Air,0
 Suspicious Node,563,CB_CLASSROOM_1_F2 ZN ZONE AIR NODE,Air,0
 Suspicious Node,564,CB_CLASSROOM_1_F3 ZN ZONE AIR NODE,Air,0
 Suspicious Node,565,CB_CLASSROOM_1_F4 ZN ZONE AIR NODE,Air,0
 Suspicious Node,566,CB_CLASSROOM_2_F2 ZN ZONE AIR NODE,Air,0
 Suspicious Node,567,CB_CLASSROOM_2_F3 ZN ZONE AIR NODE,Air,0
 Suspicious Node,568,CB_CLASSROOM_2_F4 ZN ZONE AIR NODE,Air,0
 Suspicious Node,569,CB_CLASSROOM_3_F2 ZN ZONE AIR NODE,Air,0
 Suspicious Node,570,CB_CLASSROOM_3_F3 ZN ZONE AIR NODE,Air,0
 Suspicious Node,571,CB_CLASSROOM_3_F4 ZN ZONE AIR NODE,Air,0
 Suspicious Node,572,CB_CLASSROOM_4_F2 ZN ZONE AIR NODE,Air,0
 Suspicious Node,573,CB_CLASSROOM_4_F3 ZN ZONE AIR NODE,Air,0
 Suspicious Node,574,CB_CLASSROOM_4_F4 ZN ZONE AIR NODE,Air,0
 Suspicious Node,575,CB_CLASSROOM_5_F2 ZN ZONE AIR NODE,Air,0
 Suspicious Node,576,CB_CLASSROOM_5_F3 ZN ZONE AIR NODE,Air,0
 Suspicious Node,577,CB_CLASSROOM_5_F4 ZN ZONE AIR NODE,Air,0
 Suspicious Node,578,CB_CLASSROOM_6_F2 ZN ZONE AIR NODE,Air,0
 Suspicious Node,579,CB_CLASSROOM_6_F3 ZN ZONE AIR NODE,Air,0
 Suspicious Node,580,CB_CLASSROOM_6_F4 ZN ZONE AIR NODE,Air,0
 Suspicious Node,581,CB_CLASSROOM_7_F2 ZN ZONE AIR NODE,Air,0
 Suspicious Node,582,CB_CLASSROOM_7_F3 ZN ZONE AIR NODE,Air,0
 Suspicious Node,583,CB_CLASSROOM_8_F2 ZN ZONE AIR NODE,Air,0
 Suspicious Node,584,CB_CLASSROOM_8_F3 ZN ZONE AIR NODE,Air,0
 Suspicious Node,585,CB_CONFERENCE_ROOM_F1 ZN ZONE AIR NODE,Air,0
 Suspicious Node,586,CB_CONFERENCE_ROOM_F2 ZN ZONE AIR NODE,Air,0
 Suspicious Node,587,CB_CONFERENCE_ROOM_F3 ZN ZONE AIR NODE,Air,0
 Suspicious Node,588,CB_CONFERENCE_ROOM_F4 ZN ZONE AIR NODE,Air,0
 Suspicious Node,589,CB_CORRIDOR_1_F3 ZN ZONE AIR NODE,Air,0
 Suspicious Node,590,CB_CORRIDOR_2_F3 ZN ZONE AIR NODE,Air,0
 Suspicious Node,591,CB_CORRIDOR_F1 ZN ZONE AIR NODE,Air,0
 Suspicious Node,592,CB_CORRIDOR_F2 ZN ZONE AIR NODE,Air,0
 Suspicious Node,593,CB_CORRIDOR_F4 ZN ZONE AIR NODE,Air,0
 Suspicious Node,594,CB_ENTRANCE_LOBBY_F1 ZN ZONE AIR NODE,Air,0
 Suspicious Node,595,CB_FACULTY_OFFICE_1_F2 ZN ZONE AIR NODE,Air,0
 Suspicious Node,596,CB_FACULTY_OFFICE_1_F3 ZN ZONE AIR NODE,Air,0
 Suspicious Node,597,CB_FACULTY_OFFICE_1_F4 ZN ZONE AIR NODE,Air,0
 Suspicious Node,598,CB_FACULTY_OFFICE_2_F2 ZN ZONE AIR NODE,Air,0
 Suspicious Node,599,CB_FACULTY_OFFICE_2_F3 ZN ZONE AIR NODE,Air,0
 Suspicious Node,600,CB_FACULTY_OFFICE_2_F4 ZN ZONE AIR NODE,Air,0
 Suspicious Node,601,CB_FACULTY_OFFICE_3_F2 ZN ZONE AIR NODE,Air,0
 Suspicious Node,602,CB_FACULTY_OFFICE_3_F3 ZN ZONE AIR NODE,Air,0
 Suspicious Node,603,CB_FACULTY_OFFICE_3_F4 ZN ZONE AIR NODE,Air,0
 Suspicious Node,604,CB_FACULTY_OFFICE_4_F2 ZN ZONE AIR NODE,Air,0
 Suspicious Node,605,CB_FACULTY_OFFICE_4_F3 ZN ZONE AIR NODE,Air,0
 Suspicious Node,606,CB_FACULTY_OFFICE_4_F4 ZN ZONE AIR NODE,Air,0
 Suspicious Node,607,CB_FACULTY_OFFICE_5_F2 ZN ZONE AIR NODE,Air,0
 Suspicious Node,608,CB_FACULTY_OFFICE_5_F3 ZN ZONE AIR NODE,Air,0
 Suspicious Node,609,CB_FACULTY_OFFICE_5_F4 ZN ZONE AIR NODE,Air,0
 Suspicious Node,610,CB_FACULTY_OFFICE_6_F2 ZN ZONE AIR NODE,Air,0
 Suspicious Node,611,CB_FACULTY_OFFICE_6_F3 ZN ZONE AIR NODE,Air,0
 Suspicious Node,612,CB_FACULTY_OFFICE_6_F4 ZN ZONE AIR NODE,Air,0
 Suspicious Node,613,CB_FACULTY_OFFICE_7_F2 ZN ZONE AIR NODE,Air,0
 Suspicious Node,614,CB_FACULTY_OFFICE_7_F3 ZN ZONE AIR NODE,Air,0
 Suspicious Node,615,CB_FACULTY_OFFICE_7_F4 ZN ZONE AIR NODE,Air,0
 Suspicious Node,616,CB_FACULTY_OFFICE_8_F2 ZN ZONE AIR NODE,Air,0
 Suspicious Node,617,CB_FACULTY_OFFICE_8_F3 ZN ZONE AIR NODE,Air,0
 Suspicious Node,618,CB_FACULTY_OFFICE_8_F4 ZN ZONE AIR NODE,Air,0
 Suspicious Node,619,CB_FACULTY_RESTROOMS_1_F2 ZN ZONE AIR NODE,Air,0
 Suspicious Node,620,CB_FACULTY_RESTROOMS_1_F3 ZN ZONE AIR NODE,Air,0
 Suspicious Node,621,CB_FACULTY_RESTROOMS_1_F4 ZN ZONE AIR NODE,Air,0
 Suspicious Node,622,CB_FACULTY_RESTROOMS_2_F2 ZN ZONE AIR NODE,Air,0
 Suspicious Node,623,CB_FACULTY_RESTROOMS_2_F3 ZN ZONE AIR NODE,Air,0
 Suspicious Node,624,CB_FACULTY_RESTROOMS_2_F4 ZN ZONE AIR NODE,Air,0
 Suspicious Node,625,CB_LAB_1_F4 ZN ZONE AIR NODE,Air,0
 Suspicious Node,626,CB_LAB_2_F4 ZN ZONE AIR NODE,Air,0
 Suspicious Node,627,CB_LAB_3_F4 ZN ZONE AIR NODE,Air,0
 Suspicious Node,628,CB_LAB_4_F4 ZN ZONE AIR NODE,Air,0
 Suspicious Node,629,CB_LECTURE_ROOM_1_F1 ZN ZONE AIR NODE,Air,0
 Suspicious Node,630,CB_LECTURE_ROOM_2_F1 ZN ZONE AIR NODE,Air,0
 Suspicious Node,631,CB_LIBRARY_MEDIA_CENTER_F1 ZN ZONE AIR NODE,Air,0
 Suspicious Node,632,CB_MAIN_STAIRS_F1 ZN ZONE AIR NODE,Air,0
 Suspicious Node,633,CB_MAIN_STAIRS_F2 ZN ZONE AIR NODE,Air,0
 Suspicious Node,634,CB_MAIN_STAIRS_F3 ZN ZONE AIR NODE,Air,0
 Suspicious Node,635,CB_MAIN_STAIRS_F4 ZN ZONE AIR NODE,Air,0
 Suspicious Node,636,CB_OFFICES_ENCLOSED_1_F1 ZN ZONE AIR NODE,Air,0
 Suspicious Node,637,CB_OFFICES_ENCLOSED_2_F1 ZN ZONE AIR NODE,Air,0
 Suspicious Node,638,CB_OFFICES_ENCLOSED_3_F1 ZN ZONE AIR NODE,Air,0
 Suspicious Node,639,CB_OFFICES_ENCLOSED_4_F1 ZN ZONE AIR NODE,Air,0
 Suspicious Node,640,CB_OFFICES_ENCLOSED_5_F1 ZN ZONE AIR NODE,Air,0
 Suspicious Node,641,CB_OFFICES_ENCLOSED_6_F1 ZN ZONE AIR NODE,Air,0
 Suspicious Node,642,CB_OFFICES_ENCLOSED_7_F1 ZN ZONE AIR NODE,Air,0
 Suspicious Node,643,CB_OFFICES_ENCLOSED_8_F1 ZN ZONE AIR NODE,Air,0
 Suspicious Node,644,CB_OFFICES_OPEN_F1 ZN ZONE AIR NODE,Air,0
 Suspicious Node,645,CB_OFFICES_OPEN_F2 ZN ZONE AIR NODE,Air,0
 Suspicious Node,646,CB_OFFICES_OPEN_F3 ZN ZONE AIR NODE,Air,0
 Suspicious Node,647,CB_OFFICES_OPEN_F4 ZN ZONE AIR NODE,Air,0
 Suspicious Node,648,CB_SECONDARY_STAIRS_1_F1 ZN ZONE AIR NODE,Air,0
 Suspicious Node,649,CB_SECONDARY_STAIRS_1_F2 ZN ZONE AIR NODE,Air,0
 Suspicious Node,650,CB_SECONDARY_STAIRS_1_F3 ZN ZONE AIR NODE,Air,0
 Suspicious Node,651,CB_SECONDARY_STAIRS_1_F4 ZN ZONE AIR NODE,Air,0
 Suspicious Node,652,CB_SECONDARY_STAIRS_2_F1 ZN ZONE AIR NODE,Air,0
 Suspicious Node,653,CB_SECONDARY_STAIRS_2_F2 ZN ZONE AIR NODE,Air,0
 Suspicious Node,654,CB_SECONDARY_STAIRS_2_F3 ZN ZONE AIR NODE,Air,0
 Suspicious Node,655,CB_SECONDARY_STAIRS_2_F4 ZN ZONE AIR NODE,Air,0
 Suspicious Node,656,CB_STAFF_RESTROOMS_1_F1 ZN ZONE AIR NODE,Air,0
 Suspicious Node,657,CB_STAFF_RESTROOMS_2_F1 ZN ZONE AIR NODE,Air,0
 Suspicious Node,658,CB_STORAGE_F1 ZN ZONE AIR NODE,Air,0
 Suspicious Node,659,CB_STUDENTS_RESTROOMS_1_F1 ZN ZONE AIR NODE,Air,0
 Suspicious Node,660,CB_STUDENTS_RESTROOMS_1_F2 ZN ZONE AIR NODE,Air,0
 Suspicious Node,661,CB_STUDENTS_RESTROOMS_1_F3 ZN ZONE AIR NODE,Air,0
 Suspicious Node,662,CB_STUDENTS_RESTROOMS_1_F4 ZN ZONE AIR NODE,Air,0
 Suspicious Node,663,CB_STUDENTS_RESTROOMS_2_F1 ZN ZONE AIR NODE,Air,0
 Suspicious Node,664,CB_STUDENTS_RESTROOMS_2_F2 ZN ZONE AIR NODE,Air,0
 Suspicious Node,665,CB_STUDENTS_RESTROOMS_2_F3 ZN ZONE AIR NODE,Air,0
 Suspicious Node,666,CB_STUDENTS_RESTROOMS_2_F4 ZN ZONE AIR NODE,Air,0
 Suspicious Node,667,CB_STUDIO_1_F2 ZN ZONE AIR NODE,Air,0
 Suspicious Node,668,CB_STUDIO_1_F3 ZN ZONE AIR NODE,Air,0
 Suspicious Node,669,CB_STUDIO_2_F2 ZN ZONE AIR NODE,Air,0
 Suspicious Node,670,CB_STUDIO_2_F3 ZN ZONE AIR NODE,Air,0
 Suspicious Node,671,CB_UTILITY_F1 ZN ZONE AIR NODE,Air,0
 Suspicious Node,672,CB_UTILITY_F2 ZN ZONE AIR NODE,Air,0
 Suspicious Node,673,CB_UTILITY_F3 ZN ZONE AIR NODE,Air,0
 Suspicious Node,674,CB_UTILITY_F4 ZN ZONE AIR NODE,Air,0
 Suspicious Node,683,MODEL OUTDOOR AIR NODE,Air,0
! ===============================================================
! <#Branch Lists>,<Number of Branch Lists>
 #Branch Lists,12
! <Branch List>,<Branch List Count>,<Branch List Name>,<Loop Name>,<Loop Type>,<Number of Branches>
! <Branch>,<Branch Count>,<Branch Name>,<Loop Name>,<Loop Type>,<Branch Inlet Node Name>,<Branch Outlet Node Name>
 Branch List,1,VAV_1 SUPPLY BRANCHES,VAV_1,Air,1
   Branch,1,VAV_1 MAIN BRANCH,VAV_1,Air,VAV_1 SUPPLY INLET NODE,VAV_1 SUPPLY OUTLET NODE
 Branch List,2,VAV_2 SUPPLY BRANCHES,VAV_2,Air,1
   Branch,1,VAV_2 MAIN BRANCH,VAV_2,Air,VAV_2 SUPPLY INLET NODE,VAV_2 SUPPLY OUTLET NODE
 Branch List,3,VAV_3 SUPPLY BRANCHES,VAV_3,Air,1
   Branch,1,VAV_3 MAIN BRANCH,VAV_3,Air,VAV_3 SUPPLY INLET NODE,VAV_3 SUPPLY OUTLET NODE
 Branch List,4,VAV_4 SUPPLY BRANCHES,VAV_4,Air,1
   Branch,1,VAV_4 MAIN BRANCH,VAV_4,Air,VAV_4 SUPPLY INLET NODE,VAV_4 SUPPLY OUTLET NODE
 Branch List,5,CHILLED WATER LOOP SUPPLY BRANCHES,CHILLED WATER LOOP,Plant Supply,4
   Branch,1,CHILLED WATER LOOP SUPPLY INLET BRANCH,CHILLED WATER LOOP,Plant Supply,CHILLED WATER LOOP SUPPLY INLET NODE,CHILLED WATER LOOP PRIMARY PUMP OUTLET WATER NODE
   Branch,2,CHILLED WATER LOOP SUPPLY BRANCH 1,CHILLED WATER LOOP,Plant Supply,90.1-2019 WATERCOOLED  CENTRIFUGAL CHILLER 0 116TONS 0.6KW/TON SUPPLY INLET WATER NODE,90.1-2019 WATERCOOLED  CENTRIFUGAL CHILLER 0 116TONS 0.6KW/TON SUPPLY OUTLET WATER NODE
   Branch,3,CHILLED WATER LOOP SUPPLY BRANCH 2,CHILLED WATER LOOP,Plant Supply,CHILLED WATER LOOP CHILLER BYPASS INLET WATER NODE,CHILLED WATER LOOP CHILLER BYPASS OUTLET WATER NODE
   Branch,4,CHILLED WATER LOOP SUPPLY OUTLET BRANCH,CHILLED WATER LOOP,Plant Supply,CHILLED WATER LOOP SUPPLY OUTLET INLET WATER NODE,CHILLED WATER LOOP SUPPLY OUTLET NODE
 Branch List,6,CHILLED WATER LOOP DEMAND BRANCHES,CHILLED WATER LOOP,Plant Demand,8
   Branch,1,CHILLED WATER LOOP DEMAND INLET BRANCH,CHILLED WATER LOOP,Plant Demand,CHILLED WATER LOOP DEMAND INLET NODE,CHILLED WATER LOOP SECONDARY PUMP OUTLET WATER NODE
   Branch,2,CHILLED WATER LOOP DEMAND BRANCH 1,CHILLED WATER LOOP,Plant Demand,CHILLED WATER LOOP COIL BYPASS INLET WATER NODE,CHILLED WATER LOOP COIL BYPASS OUTLET WATER NODE
   Branch,3,CHILLED WATER LOOP DEMAND BRANCH 2,CHILLED WATER LOOP,Plant Demand,VAV_1 CLG COIL INLET WATER NODE,VAV_1 CLG COIL OUTLET WATER NODE
   Branch,4,CHILLED WATER LOOP DEMAND BRANCH 3,CHILLED WATER LOOP,Plant Demand,VAV_2 CLG COIL INLET WATER NODE,VAV_2 CLG COIL OUTLET WATER NODE
   Branch,5,CHILLED WATER LOOP DEMAND BRANCH 4,CHILLED WATER LOOP,Plant Demand,VAV_3 CLG COIL INLET WATER NODE,VAV_3 CLG COIL OUTLET WATER NODE
   Branch,6,CHILLED WATER LOOP DEMAND BRANCH 5,CHILLED WATER LOOP,Plant Demand,VAV_4 CLG COIL INLET WATER NODE,VAV_4 CLG COIL OUTLET WATER NODE
   Branch,7,CHILLED WATER LOOP DEMAND BYPASS BRANCH,CHILLED WATER LOOP,Plant Demand,CHILLED WATER LOOP DEMAND BYPASS PIPE INLET NODE,CHILLED WATER LOOP DEMAND BYPASS PIPE OUTLET NODE
   Branch,8,CHILLED WATER LOOP DEMAND OUTLET BRANCH,CHILLED WATER LOOP,Plant Demand,CHILLED WATER LOOP DEMAND OUTLET INLET WATER NODE,CHILLED WATER LOOP DEMAND OUTLET NODE
 Branch List,7,CONDENSER WATER LOOP SUPPLY BRANCHES,CONDENSER WATER LOOP,Plant Supply,4
   Branch,1,CONDENSER WATER LOOP SUPPLY INLET BRANCH,CONDENSER WATER LOOP,Plant Supply,CONDENSER WATER LOOP SUPPLY INLET NODE,CONDENSER WATER LOOP CONSTANT PUMP OUTLET WATER NODE
   Branch,2,CONDENSER WATER LOOP SUPPLY BRANCH 1,CONDENSER WATER LOOP,Plant Supply,CENTRIFUGAL VARIABLE SPEED FAN OPEN COOLING TOWER 20.0 GPM/HP INLET WATER NODE,CENTRIFUGAL VARIABLE SPEED FAN OPEN COOLING TOWER 20.0 GPM/HP OUTLET WATER NODE
   Branch,3,CONDENSER WATER LOOP SUPPLY BRANCH 2,CONDENSER WATER LOOP,Plant Supply,CONDENSER WATER LOOP COOLING TOWER BYPASS INLET WATER NODE,CONDENSER WATER LOOP COOLING TOWER BYPASS OUTLET WATER NODE
   Branch,4,CONDENSER WATER LOOP SUPPLY OUTLET BRANCH,CONDENSER WATER LOOP,Plant Supply,CONDENSER WATER LOOP SUPPLY OUTLET INLET WATER NODE,CONDENSER WATER LOOP SUPPLY OUTLET NODE
 Branch List,8,CONDENSER WATER LOOP DEMAND BRANCHES,CONDENSER WATER LOOP,Plant Demand,5
   Branch,1,CONDENSER WATER LOOP DEMAND INLET BRANCH,CONDENSER WATER LOOP,Plant Demand,CONDENSER WATER LOOP DEMAND INLET NODE,CONDENSER WATER LOOP DEMAND INLET OUTLET WATER NODE
   Branch,2,CONDENSER WATER LOOP DEMAND BRANCH 1,CONDENSER WATER LOOP,Plant Demand,CONDENSER WATER LOOP CHILLER BYPASS INLET WATER NODE,CONDENSER WATER LOOP CHILLER BYPASS OUTLET WATER NODE
   Branch,3,CONDENSER WATER LOOP DEMAND BRANCH 2,CONDENSER WATER LOOP,Plant Demand,90.1-2019 WATERCOOLED  CENTRIFUGAL CHILLER 0 116TONS 0.6KW/TON DEMAND INLET WATER NODE,90.1-2019 WATERCOOLED  CENTRIFUGAL CHILLER 0 116TONS 0.6KW/TON DEMAND OUTLET WATER NODE
   Branch,4,CONDENSER WATER LOOP DEMAND BYPASS BRANCH,CONDENSER WATER LOOP,Plant Demand,CONDENSER WATER LOOP DEMAND BYPASS PIPE INLET NODE,CONDENSER WATER LOOP DEMAND BYPASS PIPE OUTLET NODE
   Branch,5,CONDENSER WATER LOOP DEMAND OUTLET BRANCH,CONDENSER WATER LOOP,Plant Demand,CONDENSER WATER LOOP DEMAND OUTLET INLET WATER NODE,CONDENSER WATER LOOP DEMAND OUTLET NODE
 Branch List,9,HOT WATER LOOP SUPPLY BRANCHES,HOT WATER LOOP,Plant Supply,4
   Branch,1,HOT WATER LOOP SUPPLY INLET BRANCH,HOT WATER LOOP,Plant Supply,HOT WATER LOOP SUPPLY INLET NODE,HOT WATER LOOP PUMP OUTLET WATER NODE
   Branch,2,HOT WATER LOOP SUPPLY BRANCH 1,HOT WATER LOOP,Plant Supply,BOILER 551KBTU/HR 0.8 THERMAL EFF INLET WATER NODE,BOILER 551KBTU/HR 0.8 THERMAL EFF OUTLET WATER NODE
   Branch,3,HOT WATER LOOP SUPPLY BRANCH 2,HOT WATER LOOP,Plant Supply,HOT WATER LOOP SUPPLY EQUIPMENT BYPASS INLET WATER NODE,HOT WATER LOOP SUPPLY EQUIPMENT BYPASS OUTLET WATER NODE
   Branch,4,HOT WATER LOOP SUPPLY OUTLET BRANCH,HOT WATER LOOP,Plant Supply,HOT WATER LOOP SUPPLY OUTLET INLET WATER NODE,HOT WATER LOOP SUPPLY OUTLET NODE
 Branch List,10,HOT WATER LOOP DEMAND BRANCHES,HOT WATER LOOP,Plant Demand,121
   Branch,1,HOT WATER LOOP DEMAND INLET BRANCH,HOT WATER LOOP,Plant Demand,HOT WATER LOOP DEMAND INLET NODE,HOT WATER LOOP DEMAND INLET OUTLET WATER NODE
   Branch,2,HOT WATER LOOP DEMAND BRANCH 1,HOT WATER LOOP,Plant Demand,HOT WATER LOOP COIL BYPASS INLET WATER NODE,HOT WATER LOOP COIL BYPASS OUTLET WATER NODE
   Branch,3,HOT WATER LOOP DEMAND BRANCH 2,HOT WATER LOOP,Plant Demand,VAV_1 MAIN HTG COIL INLET WATER NODE,VAV_1 MAIN HTG COIL OUTLET WATER NODE
   Branch,4,HOT WATER LOOP DEMAND BRANCH 3,HOT WATER LOOP,Plant Demand,CB_OFFICES_ENCLOSED_1_F1 ZN REHEAT COIL INLET WATER NODE,CB_OFFICES_ENCLOSED_1_F1 ZN REHEAT COIL OUTLET WATER NODE
   Branch,5,HOT WATER LOOP DEMAND BRANCH 4,HOT WATER LOOP,Plant Demand,CB_OFFICES_ENCLOSED_2_F1 ZN REHEAT COIL INLET WATER NODE,CB_OFFICES_ENCLOSED_2_F1 ZN REHEAT COIL OUTLET WATER NODE
   Branch,6,HOT WATER LOOP DEMAND BRANCH 5,HOT WATER LOOP,Plant Demand,CB_OFFICES_ENCLOSED_3_F1 ZN REHEAT COIL INLET WATER NODE,CB_OFFICES_ENCLOSED_3_F1 ZN REHEAT COIL OUTLET WATER NODE
   Branch,7,HOT WATER LOOP DEMAND BRANCH 6,HOT WATER LOOP,Plant Demand,CB_OFFICES_ENCLOSED_4_F1 ZN REHEAT COIL INLET WATER NODE,CB_OFFICES_ENCLOSED_4_F1 ZN REHEAT COIL OUTLET WATER NODE
   Branch,8,HOT WATER LOOP DEMAND BRANCH 7,HOT WATER LOOP,Plant Demand,CB_OFFICES_ENCLOSED_5_F1 ZN REHEAT COIL INLET WATER NODE,CB_OFFICES_ENCLOSED_5_F1 ZN REHEAT COIL OUTLET WATER NODE
   Branch,9,HOT WATER LOOP DEMAND BRANCH 8,HOT WATER LOOP,Plant Demand,CB_OFFICES_ENCLOSED_6_F1 ZN REHEAT COIL INLET WATER NODE,CB_OFFICES_ENCLOSED_6_F1 ZN REHEAT COIL OUTLET WATER NODE
   Branch,10,HOT WATER LOOP DEMAND BRANCH 9,HOT WATER LOOP,Plant Demand,CB_OFFICES_ENCLOSED_7_F1 ZN REHEAT COIL INLET WATER NODE,CB_OFFICES_ENCLOSED_7_F1 ZN REHEAT COIL OUTLET WATER NODE
   Branch,11,HOT WATER LOOP DEMAND BRANCH 10,HOT WATER LOOP,Plant Demand,CB_OFFICES_ENCLOSED_8_F1 ZN REHEAT COIL INLET WATER NODE,CB_OFFICES_ENCLOSED_8_F1 ZN REHEAT COIL OUTLET WATER NODE
   Branch,12,HOT WATER LOOP DEMAND BRANCH 11,HOT WATER LOOP,Plant Demand,CB_CAFE_STUDY_LOUNGE_F1 ZN REHEAT COIL INLET WATER NODE,CB_CAFE_STUDY_LOUNGE_F1 ZN REHEAT COIL OUTLET WATER NODE
   Branch,13,HOT WATER LOOP DEMAND BRANCH 12,HOT WATER LOOP,Plant Demand,CB_CONFERENCE_ROOM_F1 ZN REHEAT COIL INLET WATER NODE,CB_CONFERENCE_ROOM_F1 ZN REHEAT COIL OUTLET WATER NODE
   Branch,14,HOT WATER LOOP DEMAND BRANCH 13,HOT WATER LOOP,Plant Demand,CB_CORRIDOR_F1 ZN REHEAT COIL INLET WATER NODE,CB_CORRIDOR_F1 ZN REHEAT COIL OUTLET WATER NODE
   Branch,15,HOT WATER LOOP DEMAND BRANCH 14,HOT WATER LOOP,Plant Demand,CB_ENTRANCE_LOBBY_F1 ZN REHEAT COIL INLET WATER NODE,CB_ENTRANCE_LOBBY_F1 ZN REHEAT COIL OUTLET WATER NODE
   Branch,16,HOT WATER LOOP DEMAND BRANCH 15,HOT WATER LOOP,Plant Demand,CB_LECTURE_ROOM_1_F1 ZN REHEAT COIL INLET WATER NODE,CB_LECTURE_ROOM_1_F1 ZN REHEAT COIL OUTLET WATER NODE
   Branch,17,HOT WATER LOOP DEMAND BRANCH 16,HOT WATER LOOP,Plant Demand,CB_LECTURE_ROOM_2_F1 ZN REHEAT COIL INLET WATER NODE,CB_LECTURE_ROOM_2_F1 ZN REHEAT COIL OUTLET WATER NODE
   Branch,18,HOT WATER LOOP DEMAND BRANCH 17,HOT WATER LOOP,Plant Demand,CB_LIBRARY_MEDIA_CENTER_F1 ZN REHEAT COIL INLET WATER NODE,CB_LIBRARY_MEDIA_CENTER_F1 ZN REHEAT COIL OUTLET WATER NODE
   Branch,19,HOT WATER LOOP DEMAND BRANCH 18,HOT WATER LOOP,Plant Demand,CB_MAIN_STAIRS_F1 ZN REHEAT COIL INLET WATER NODE,CB_MAIN_STAIRS_F1 ZN REHEAT COIL OUTLET WATER NODE
   Branch,20,HOT WATER LOOP DEMAND BRANCH 19,HOT WATER LOOP,Plant Demand,CB_OFFICES_OPEN_F1 ZN REHEAT COIL INLET WATER NODE,CB_OFFICES_OPEN_F1 ZN REHEAT COIL OUTLET WATER NODE
   Branch,21,HOT WATER LOOP DEMAND BRANCH 20,HOT WATER LOOP,Plant Demand,CB_SECONDARY_STAIRS_1_F1 ZN REHEAT COIL INLET WATER NODE,CB_SECONDARY_STAIRS_1_F1 ZN REHEAT COIL OUTLET WATER NODE
   Branch,22,HOT WATER LOOP DEMAND BRANCH 21,HOT WATER LOOP,Plant Demand,CB_STAFF_RESTROOMS_1_F1 ZN REHEAT COIL INLET WATER NODE,CB_STAFF_RESTROOMS_1_F1 ZN REHEAT COIL OUTLET WATER NODE
   Branch,23,HOT WATER LOOP DEMAND BRANCH 22,HOT WATER LOOP,Plant Demand,CB_STAFF_RESTROOMS_2_F1 ZN REHEAT COIL INLET WATER NODE,CB_STAFF_RESTROOMS_2_F1 ZN REHEAT COIL OUTLET WATER NODE
   Branch,24,HOT WATER LOOP DEMAND BRANCH 23,HOT WATER LOOP,Plant Demand,CB_STORAGE_F1 ZN REHEAT COIL INLET WATER NODE,CB_STORAGE_F1 ZN REHEAT COIL OUTLET WATER NODE
   Branch,25,HOT WATER LOOP DEMAND BRANCH 24,HOT WATER LOOP,Plant Demand,CB_STUDENTS_RESTROOMS_1_F1 ZN REHEAT COIL INLET WATER NODE,CB_STUDENTS_RESTROOMS_1_F1 ZN REHEAT COIL OUTLET WATER NODE
   Branch,26,HOT WATER LOOP DEMAND BRANCH 25,HOT WATER LOOP,Plant Demand,CB_STUDENTS_RESTROOMS_2_F1 ZN REHEAT COIL INLET WATER NODE,CB_STUDENTS_RESTROOMS_2_F1 ZN REHEAT COIL OUTLET WATER NODE
   Branch,27,HOT WATER LOOP DEMAND BRANCH 26,HOT WATER LOOP,Plant Demand,CB_UTILITY_F1 ZN REHEAT COIL INLET WATER NODE,CB_UTILITY_F1 ZN REHEAT COIL OUTLET WATER NODE
   Branch,28,HOT WATER LOOP DEMAND BRANCH 27,HOT WATER LOOP,Plant Demand,CB_SECONDARY_STAIRS_2_F1 ZN REHEAT COIL INLET WATER NODE,CB_SECONDARY_STAIRS_2_F1 ZN REHEAT COIL OUTLET WATER NODE
   Branch,29,HOT WATER LOOP DEMAND BRANCH 28,HOT WATER LOOP,Plant Demand,VAV_2 MAIN HTG COIL INLET WATER NODE,VAV_2 MAIN HTG COIL OUTLET WATER NODE
   Branch,30,HOT WATER LOOP DEMAND BRANCH 29,HOT WATER LOOP,Plant Demand,CB_FACULTY_OFFICE_1_F2 ZN REHEAT COIL INLET WATER NODE,CB_FACULTY_OFFICE_1_F2 ZN REHEAT COIL OUTLET WATER NODE
   Branch,31,HOT WATER LOOP DEMAND BRANCH 30,HOT WATER LOOP,Plant Demand,CB_FACULTY_OFFICE_2_F2 ZN REHEAT COIL INLET WATER NODE,CB_FACULTY_OFFICE_2_F2 ZN REHEAT COIL OUTLET WATER NODE
   Branch,32,HOT WATER LOOP DEMAND BRANCH 31,HOT WATER LOOP,Plant Demand,CB_FACULTY_OFFICE_3_F2 ZN REHEAT COIL INLET WATER NODE,CB_FACULTY_OFFICE_3_F2 ZN REHEAT COIL OUTLET WATER NODE
   Branch,33,HOT WATER LOOP DEMAND BRANCH 32,HOT WATER LOOP,Plant Demand,CB_FACULTY_OFFICE_4_F2 ZN REHEAT COIL INLET WATER NODE,CB_FACULTY_OFFICE_4_F2 ZN REHEAT COIL OUTLET WATER NODE
   Branch,34,HOT WATER LOOP DEMAND BRANCH 33,HOT WATER LOOP,Plant Demand,CB_FACULTY_OFFICE_5_F2 ZN REHEAT COIL INLET WATER NODE,CB_FACULTY_OFFICE_5_F2 ZN REHEAT COIL OUTLET WATER NODE
   Branch,35,HOT WATER LOOP DEMAND BRANCH 34,HOT WATER LOOP,Plant Demand,CB_FACULTY_OFFICE_6_F2 ZN REHEAT COIL INLET WATER NODE,CB_FACULTY_OFFICE_6_F2 ZN REHEAT COIL OUTLET WATER NODE
   Branch,36,HOT WATER LOOP DEMAND BRANCH 35,HOT WATER LOOP,Plant Demand,CB_FACULTY_OFFICE_7_F2 ZN REHEAT COIL INLET WATER NODE,CB_FACULTY_OFFICE_7_F2 ZN REHEAT COIL OUTLET WATER NODE
   Branch,37,HOT WATER LOOP DEMAND BRANCH 36,HOT WATER LOOP,Plant Demand,CB_FACULTY_OFFICE_8_F2 ZN REHEAT COIL INLET WATER NODE,CB_FACULTY_OFFICE_8_F2 ZN REHEAT COIL OUTLET WATER NODE
   Branch,38,HOT WATER LOOP DEMAND BRANCH 37,HOT WATER LOOP,Plant Demand,CB_CLASSROOM_1_F2 ZN REHEAT COIL INLET WATER NODE,CB_CLASSROOM_1_F2 ZN REHEAT COIL OUTLET WATER NODE
   Branch,39,HOT WATER LOOP DEMAND BRANCH 38,HOT WATER LOOP,Plant Demand,CB_CLASSROOM_2_F2 ZN REHEAT COIL INLET WATER NODE,CB_CLASSROOM_2_F2 ZN REHEAT COIL OUTLET WATER NODE
[...]
 Non-Parent Node Connection,CB_OFFICES_ENCLOSED_1_F1 ZN RETURN AIR NODE,AIRLOOPHVAC:ZONEMIXER,AIR LOOP HVAC ZONE MIXER 1,Inlet,1
 Non-Parent Node Connection,CB_OFFICES_ENCLOSED_2_F1 ZN RETURN AIR NODE,AIRLOOPHVAC:ZONEMIXER,AIR LOOP HVAC ZONE MIXER 1,Inlet,1
 Non-Parent Node Connection,CB_OFFICES_ENCLOSED_3_F1 ZN RETURN AIR NODE,AIRLOOPHVAC:ZONEMIXER,AIR LOOP HVAC ZONE MIXER 1,Inlet,1
 Non-Parent Node Connection,CB_OFFICES_ENCLOSED_4_F1 ZN RETURN AIR NODE,AIRLOOPHVAC:ZONEMIXER,AIR LOOP HVAC ZONE MIXER 1,Inlet,1
 Non-Parent Node Connection,CB_OFFICES_ENCLOSED_5_F1 ZN RETURN AIR NODE,AIRLOOPHVAC:ZONEMIXER,AIR LOOP HVAC ZONE MIXER 1,Inlet,1
 Non-Parent Node Connection,CB_OFFICES_ENCLOSED_6_F1 ZN RETURN AIR NODE,AIRLOOPHVAC:ZONEMIXER,AIR LOOP HVAC ZONE MIXER 1,Inlet,1
 Non-Parent Node Connection,CB_OFFICES_ENCLOSED_7_F1 ZN RETURN AIR NODE,AIRLOOPHVAC:ZONEMIXER,AIR LOOP HVAC ZONE MIXER 1,Inlet,1
 Non-Parent Node Connection,CB_OFFICES_ENCLOSED_8_F1 ZN RETURN AIR NODE,AIRLOOPHVAC:ZONEMIXER,AIR LOOP HVAC ZONE MIXER 1,Inlet,1
 Non-Parent Node Connection,CB_CAFE_STUDY_LOUNGE_F1 ZN RETURN AIR NODE,AIRLOOPHVAC:ZONEMIXER,AIR LOOP HVAC ZONE MIXER 1,Inlet,1
 Non-Parent Node Connection,CB_CONFERENCE_ROOM_F1 ZN RETURN AIR NODE,AIRLOOPHVAC:ZONEMIXER,AIR LOOP HVAC ZONE MIXER 1,Inlet,1
 Non-Parent Node Connection,CB_CORRIDOR_F1 ZN RETURN AIR NODE,AIRLOOPHVAC:ZONEMIXER,AIR LOOP HVAC ZONE MIXER 1,Inlet,1
 Non-Parent Node Connection,CB_ENTRANCE_LOBBY_F1 ZN RETURN AIR NODE,AIRLOOPHVAC:ZONEMIXER,AIR LOOP HVAC ZONE MIXER 1,Inlet,1
 Non-Parent Node Connection,CB_LECTURE_ROOM_1_F1 ZN RETURN AIR NODE,AIRLOOPHVAC:ZONEMIXER,AIR LOOP HVAC ZONE MIXER 1,Inlet,1
 Non-Parent Node Connection,CB_LECTURE_ROOM_2_F1 ZN RETURN AIR NODE,AIRLOOPHVAC:ZONEMIXER,AIR LOOP HVAC ZONE MIXER 1,Inlet,1
 Non-Parent Node Connection,CB_LIBRARY_MEDIA_CENTER_F1 ZN RETURN AIR NODE,AIRLOOPHVAC:ZONEMIXER,AIR LOOP HVAC ZONE MIXER 1,Inlet,1
 Non-Parent Node Connection,CB_MAIN_STAIRS_F1 ZN RETURN AIR NODE,AIRLOOPHVAC:ZONEMIXER,AIR LOOP HVAC ZONE MIXER 1,Inlet,1
 Non-Parent Node Connection,CB_OFFICES_OPEN_F1 ZN RETURN AIR NODE,AIRLOOPHVAC:ZONEMIXER,AIR LOOP HVAC ZONE MIXER 1,Inlet,1
 Non-Parent Node Connection,CB_SECONDARY_STAIRS_1_F1 ZN RETURN AIR NODE,AIRLOOPHVAC:ZONEMIXER,AIR LOOP HVAC ZONE MIXER 1,Inlet,1
 Non-Parent Node Connection,CB_STAFF_RESTROOMS_1_F1 ZN RETURN AIR NODE,AIRLOOPHVAC:ZONEMIXER,AIR LOOP HVAC ZONE MIXER 1,Inlet,1
 Non-Parent Node Connection,CB_STAFF_RESTROOMS_2_F1 ZN RETURN AIR NODE,AIRLOOPHVAC:ZONEMIXER,AIR LOOP HVAC ZONE MIXER 1,Inlet,1
 Non-Parent Node Connection,CB_STORAGE_F1 ZN RETURN AIR NODE,AIRLOOPHVAC:ZONEMIXER,AIR LOOP HVAC ZONE MIXER 1,Inlet,1
 Non-Parent Node Connection,CB_STUDENTS_RESTROOMS_1_F1 ZN RETURN AIR NODE,AIRLOOPHVAC:ZONEMIXER,AIR LOOP HVAC ZONE MIXER 1,Inlet,1
 Non-Parent Node Connection,CB_STUDENTS_RESTROOMS_2_F1 ZN RETURN AIR NODE,AIRLOOPHVAC:ZONEMIXER,AIR LOOP HVAC ZONE MIXER 1,Inlet,1
 Non-Parent Node Connection,CB_UTILITY_F1 ZN RETURN AIR NODE,AIRLOOPHVAC:ZONEMIXER,AIR LOOP HVAC ZONE MIXER 1,Inlet,1
 Non-Parent Node Connection,CB_SECONDARY_STAIRS_2_F1 ZN RETURN AIR NODE,AIRLOOPHVAC:ZONEMIXER,AIR LOOP HVAC ZONE MIXER 1,Inlet,1
 Non-Parent Node Connection,VAV_2 DEMAND OUTLET NODE,AIRLOOPHVAC:ZONEMIXER,AIR LOOP HVAC ZONE MIXER 2,Outlet,1
 Non-Parent Node Connection,CB_FACULTY_OFFICE_1_F2 ZN RETURN AIR NODE,AIRLOOPHVAC:ZONEMIXER,AIR LOOP HVAC ZONE MIXER 2,Inlet,1
 Non-Parent Node Connection,CB_FACULTY_OFFICE_2_F2 ZN RETURN AIR NODE,AIRLOOPHVAC:ZONEMIXER,AIR LOOP HVAC ZONE MIXER 2,Inlet,1
 Non-Parent Node Connection,CB_FACULTY_OFFICE_3_F2 ZN RETURN AIR NODE,AIRLOOPHVAC:ZONEMIXER,AIR LOOP HVAC ZONE MIXER 2,Inlet,1
 Non-Parent Node Connection,CB_FACULTY_OFFICE_4_F2 ZN RETURN AIR NODE,AIRLOOPHVAC:ZONEMIXER,AIR LOOP HVAC ZONE MIXER 2,Inlet,1
 Non-Parent Node Connection,CB_FACULTY_OFFICE_5_F2 ZN RETURN AIR NODE,AIRLOOPHVAC:ZONEMIXER,AIR LOOP HVAC ZONE MIXER 2,Inlet,1
 Non-Parent Node Connection,CB_FACULTY_OFFICE_6_F2 ZN RETURN AIR NODE,AIRLOOPHVAC:ZONEMIXER,AIR LOOP HVAC ZONE MIXER 2,Inlet,1
 Non-Parent Node Connection,CB_FACULTY_OFFICE_7_F2 ZN RETURN AIR NODE,AIRLOOPHVAC:ZONEMIXER,AIR LOOP HVAC ZONE MIXER 2,Inlet,1
 Non-Parent Node Connection,CB_FACULTY_OFFICE_8_F2 ZN RETURN AIR NODE,AIRLOOPHVAC:ZONEMIXER,AIR LOOP HVAC ZONE MIXER 2,Inlet,1
 Non-Parent Node Connection,CB_CLASSROOM_1_F2 ZN RETURN AIR NODE,AIRLOOPHVAC:ZONEMIXER,AIR LOOP HVAC ZONE MIXER 2,Inlet,1
 Non-Parent Node Connection,CB_CLASSROOM_2_F2 ZN RETURN AIR NODE,AIRLOOPHVAC:ZONEMIXER,AIR LOOP HVAC ZONE MIXER 2,Inlet,1
 Non-Parent Node Connection,CB_CLASSROOM_3_F2 ZN RETURN AIR NODE,AIRLOOPHVAC:ZONEMIXER,AIR LOOP HVAC ZONE MIXER 2,Inlet,1
 Non-Parent Node Connection,CB_CLASSROOM_4_F2 ZN RETURN AIR NODE,AIRLOOPHVAC:ZONEMIXER,AIR LOOP HVAC ZONE MIXER 2,Inlet,1
 Non-Parent Node Connection,CB_CLASSROOM_5_F2 ZN RETURN AIR NODE,AIRLOOPHVAC:ZONEMIXER,AIR LOOP HVAC ZONE MIXER 2,Inlet,1
 Non-Parent Node Connection,CB_CLASSROOM_6_F2 ZN RETURN AIR NODE,AIRLOOPHVAC:ZONEMIXER,AIR LOOP HVAC ZONE MIXER 2,Inlet,1
 Non-Parent Node Connection,CB_CLASSROOM_7_F2 ZN RETURN AIR NODE,AIRLOOPHVAC:ZONEMIXER,AIR LOOP HVAC ZONE MIXER 2,Inlet,1
 Non-Parent Node Connection,CB_CLASSROOM_8_F2 ZN RETURN AIR NODE,AIRLOOPHVAC:ZONEMIXER,AIR LOOP HVAC ZONE MIXER 2,Inlet,1
 Non-Parent Node Connection,CB_CONFERENCE_ROOM_F2 ZN RETURN AIR NODE,AIRLOOPHVAC:ZONEMIXER,AIR LOOP HVAC ZONE MIXER 2,Inlet,1
 Non-Parent Node Connection,CB_CORRIDOR_F2 ZN RETURN AIR NODE,AIRLOOPHVAC:ZONEMIXER,AIR LOOP HVAC ZONE MIXER 2,Inlet,1
 Non-Parent Node Connection,CB_STUDIO_1_F2 ZN RETURN AIR NODE,AIRLOOPHVAC:ZONEMIXER,AIR LOOP HVAC ZONE MIXER 2,Inlet,1
 Non-Parent Node Connection,CB_STUDIO_2_F2 ZN RETURN AIR NODE,AIRLOOPHVAC:ZONEMIXER,AIR LOOP HVAC ZONE MIXER 2,Inlet,1
 Non-Parent Node Connection,CB_MAIN_STAIRS_F2 ZN RETURN AIR NODE,AIRLOOPHVAC:ZONEMIXER,AIR LOOP HVAC ZONE MIXER 2,Inlet,1
 Non-Parent Node Connection,CB_OFFICES_OPEN_F2 ZN RETURN AIR NODE,AIRLOOPHVAC:ZONEMIXER,AIR LOOP HVAC ZONE MIXER 2,Inlet,1
 Non-Parent Node Connection,CB_SECONDARY_STAIRS_1_F2 ZN RETURN AIR NODE,AIRLOOPHVAC:ZONEMIXER,AIR LOOP HVAC ZONE MIXER 2,Inlet,1
 Non-Parent Node Connection,CB_SECONDARY_STAIRS_2_F2 ZN RETURN AIR NODE,AIRLOOPHVAC:ZONEMIXER,AIR LOOP HVAC ZONE MIXER 2,Inlet,1
 Non-Parent Node Connection,CB_FACULTY_RESTROOMS_1_F2 ZN RETURN AIR NODE,AIRLOOPHVAC:ZONEMIXER,AIR LOOP HVAC ZONE MIXER 2,Inlet,1
 Non-Parent Node Connection,CB_FACULTY_RESTROOMS_2_F2 ZN RETURN AIR NODE,AIRLOOPHVAC:ZONEMIXER,AIR LOOP HVAC ZONE MIXER 2,Inlet,1
 Non-Parent Node Connection,CB_STUDENTS_RESTROOMS_1_F2 ZN RETURN AIR NODE,AIRLOOPHVAC:ZONEMIXER,AIR LOOP HVAC ZONE MIXER 2,Inlet,1
 Non-Parent Node Connection,CB_STUDENTS_RESTROOMS_2_F2 ZN RETURN AIR NODE,AIRLOOPHVAC:ZONEMIXER,AIR LOOP HVAC ZONE MIXER 2,Inlet,1
 Non-Parent Node Connection,CB_UTILITY_F2 ZN RETURN AIR NODE,AIRLOOPHVAC:ZONEMIXER,AIR LOOP HVAC ZONE MIXER 2,Inlet,1
 Non-Parent Node Connection,VAV_3 DEMAND OUTLET NODE,AIRLOOPHVAC:ZONEMIXER,AIR LOOP HVAC ZONE MIXER 3,Outlet,1
 Non-Parent Node Connection,CB_FACULTY_OFFICE_1_F3 ZN RETURN AIR NODE,AIRLOOPHVAC:ZONEMIXER,AIR LOOP HVAC ZONE MIXER 3,Inlet,1
 Non-Parent Node Connection,CB_FACULTY_OFFICE_2_F3 ZN RETURN AIR NODE,AIRLOOPHVAC:ZONEMIXER,AIR LOOP HVAC ZONE MIXER 3,Inlet,1
 Non-Parent Node Connection,CB_FACULTY_OFFICE_3_F3 ZN RETURN AIR NODE,AIRLOOPHVAC:ZONEMIXER,AIR LOOP HVAC ZONE MIXER 3,Inlet,1
 Non-Parent Node Connection,CB_FACULTY_OFFICE_4_F3 ZN RETURN AIR NODE,AIRLOOPHVAC:ZONEMIXER,AIR LOOP HVAC ZONE MIXER 3,Inlet,1
 Non-Parent Node Connection,CB_FACULTY_OFFICE_5_F3 ZN RETURN AIR NODE,AIRLOOPHVAC:ZONEMIXER,AIR LOOP HVAC ZONE MIXER 3,Inlet,1
 Non-Parent Node Connection,CB_FACULTY_OFFICE_6_F3 ZN RETURN AIR NODE,AIRLOOPHVAC:ZONEMIXER,AIR LOOP HVAC ZONE MIXER 3,Inlet,1
 Non-Parent Node Connection,CB_FACULTY_OFFICE_7_F3 ZN RETURN AIR NODE,AIRLOOPHVAC:ZONEMIXER,AIR LOOP HVAC ZONE MIXER 3,Inlet,1
 Non-Parent Node Connection,CB_FACULTY_OFFICE_8_F3 ZN RETURN AIR NODE,AIRLOOPHVAC:ZONEMIXER,AIR LOOP HVAC ZONE MIXER 3,Inlet,1
 Non-Parent Node Connection,CB_CLASSROOM_1_F3 ZN RETURN AIR NODE,AIRLOOPHVAC:ZONEMIXER,AIR LOOP HVAC ZONE MIXER 3,Inlet,1
 Non-Parent Node Connection,CB_CLASSROOM_2_F3 ZN RETURN AIR NODE,AIRLOOPHVAC:ZONEMIXER,AIR LOOP HVAC ZONE MIXER 3,Inlet,1
 Non-Parent Node Connection,CB_CLASSROOM_3_F3 ZN RETURN AIR NODE,AIRLOOPHVAC:ZONEMIXER,AIR LOOP HVAC ZONE MIXER 3,Inlet,1
 Non-Parent Node Connection,CB_CLASSROOM_4_F3 ZN RETURN AIR NODE,AIRLOOPHVAC:ZONEMIXER,AIR LOOP HVAC ZONE MIXER 3,Inlet,1
 Non-Parent Node Connection,CB_CLASSROOM_5_F3 ZN RETURN AIR NODE,AIRLOOPHVAC:ZONEMIXER,AIR LOOP HVAC ZONE MIXER 3,Inlet,1
 Non-Parent Node Connection,CB_CLASSROOM_6_F3 ZN RETURN AIR NODE,AIRLOOPHVAC:ZONEMIXER,AIR LOOP HVAC ZONE MIXER 3,Inlet,1
 Non-Parent Node Connection,CB_CLASSROOM_7_F3 ZN RETURN AIR NODE,AIRLOOPHVAC:ZONEMIXER,AIR LOOP HVAC ZONE MIXER 3,Inlet,1
 Non-Parent Node Connection,CB_CLASSROOM_8_F3 ZN RETURN AIR NODE,AIRLOOPHVAC:ZONEMIXER,AIR LOOP HVAC ZONE MIXER 3,Inlet,1
 Non-Parent Node Connection,CB_CONFERENCE_ROOM_F3 ZN RETURN AIR NODE,AIRLOOPHVAC:ZONEMIXER,AIR LOOP HVAC ZONE MIXER 3,Inlet,1
 Non-Parent Node Connection,CB_CORRIDOR_1_F3 ZN RETURN AIR NODE,AIRLOOPHVAC:ZONEMIXER,AIR LOOP HVAC ZONE MIXER 3,Inlet,1
 Non-Parent Node Connection,CB_CORRIDOR_2_F3 ZN RETURN AIR NODE,AIRLOOPHVAC:ZONEMIXER,AIR LOOP HVAC ZONE MIXER 3,Inlet,1
 Non-Parent Node Connection,CB_STUDIO_1_F3 ZN RETURN AIR NODE,AIRLOOPHVAC:ZONEMIXER,AIR LOOP HVAC ZONE MIXER 3,Inlet,1
 Non-Parent Node Connection,CB_STUDIO_2_F3 ZN RETURN AIR NODE,AIRLOOPHVAC:ZONEMIXER,AIR LOOP HVAC ZONE MIXER 3,Inlet,1
 Non-Parent Node Connection,CB_MAIN_STAIRS_F3 ZN RETURN AIR NODE,AIRLOOPHVAC:ZONEMIXER,AIR LOOP HVAC ZONE MIXER 3,Inlet,1
 Non-Parent Node Connection,CB_OFFICES_OPEN_F3 ZN RETURN AIR NODE,AIRLOOPHVAC:ZONEMIXER,AIR LOOP HVAC ZONE MIXER 3,Inlet,1
 Non-Parent Node Connection,CB_SECONDARY_STAIRS_1_F3 ZN RETURN AIR NODE,AIRLOOPHVAC:ZONEMIXER,AIR LOOP HVAC ZONE MIXER 3,Inlet,1
 Non-Parent Node Connection,CB_SECONDARY_STAIRS_2_F3 ZN RETURN AIR NODE,AIRLOOPHVAC:ZONEMIXER,AIR LOOP HVAC ZONE MIXER 3,Inlet,1
 Non-Parent Node Connection,CB_FACULTY_RESTROOMS_1_F3 ZN RETURN AIR NODE,AIRLOOPHVAC:ZONEMIXER,AIR LOOP HVAC ZONE MIXER 3,Inlet,1
 Non-Parent Node Connection,CB_FACULTY_RESTROOMS_2_F3 ZN RETURN AIR NODE,AIRLOOPHVAC:ZONEMIXER,AIR LOOP HVAC ZONE MIXER 3,Inlet,1
 Non-Parent Node Connection,CB_STUDENTS_RESTROOMS_1_F3 ZN RETURN AIR NODE,AIRLOOPHVAC:ZONEMIXER,AIR LOOP HVAC ZONE MIXER 3,Inlet,1
 Non-Parent Node Connection,CB_STUDENTS_RESTROOMS_2_F3 ZN RETURN AIR NODE,AIRLOOPHVAC:ZONEMIXER,AIR LOOP HVAC ZONE MIXER 3,Inlet,1
 Non-Parent Node Connection,CB_UTILITY_F3 ZN RETURN AIR NODE,AIRLOOPHVAC:ZONEMIXER,AIR LOOP HVAC ZONE MIXER 3,Inlet,1
 Non-Parent Node Connection,VAV_4 DEMAND OUTLET NODE,AIRLOOPHVAC:ZONEMIXER,AIR LOOP HVAC ZONE MIXER 4,Outlet,1
 Non-Parent Node Connection,CB_FACULTY_OFFICE_1_F4 ZN RETURN AIR NODE,AIRLOOPHVAC:ZONEMIXER,AIR LOOP HVAC ZONE MIXER 4,Inlet,1
 Non-Parent Node Connection,CB_FACULTY_OFFICE_2_F4 ZN RETURN AIR NODE,AIRLOOPHVAC:ZONEMIXER,AIR LOOP HVAC ZONE MIXER 4,Inlet,1
 Non-Parent Node Connection,CB_FACULTY_OFFICE_3_F4 ZN RETURN AIR NODE,AIRLOOPHVAC:ZONEMIXER,AIR LOOP HVAC ZONE MIXER 4,Inlet,1
 Non-Parent Node Connection,CB_FACULTY_OFFICE_4_F4 ZN RETURN AIR NODE,AIRLOOPHVAC:ZONEMIXER,AIR LOOP HVAC ZONE MIXER 4,Inlet,1
 Non-Parent Node Connection,CB_FACULTY_OFFICE_5_F4 ZN RETURN AIR NODE,AIRLOOPHVAC:ZONEMIXER,AIR LOOP HVAC ZONE MIXER 4,Inlet,1
 Non-Parent Node Connection,CB_FACULTY_OFFICE_6_F4 ZN RETURN AIR NODE,AIRLOOPHVAC:ZONEMIXER,AIR LOOP HVAC ZONE MIXER 4,Inlet,1
 Non-Parent Node Connection,CB_FACULTY_OFFICE_7_F4 ZN RETURN AIR NODE,AIRLOOPHVAC:ZONEMIXER,AIR LOOP HVAC ZONE MIXER 4,Inlet,1
 Non-Parent Node Connection,CB_FACULTY_OFFICE_8_F4 ZN RETURN AIR NODE,AIRLOOPHVAC:ZONEMIXER,AIR LOOP HVAC ZONE MIXER 4,Inlet,1
 Non-Parent Node Connection,CB_CLASSROOM_1_F4 ZN RETURN AIR NODE,AIRLOOPHVAC:ZONEMIXER,AIR LOOP HVAC ZONE MIXER 4,Inlet,1
 Non-Parent Node Connection,CB_CLASSROOM_2_F4 ZN RETURN AIR NODE,AIRLOOPHVAC:ZONEMIXER,AIR LOOP HVAC ZONE MIXER 4,Inlet,1
 Non-Parent Node Connection,CB_CLASSROOM_3_F4 ZN RETURN AIR NODE,AIRLOOPHVAC:ZONEMIXER,AIR LOOP HVAC ZONE MIXER 4,Inlet,1
 Non-Parent Node Connection,CB_CLASSROOM_4_F4 ZN RETURN AIR NODE,AIRLOOPHVAC:ZONEMIXER,AIR LOOP HVAC ZONE MIXER 4,Inlet,1
 Non-Parent Node Connection,CB_CLASSROOM_5_F4 ZN RETURN AIR NODE,AIRLOOPHVAC:ZONEMIXER,AIR LOOP HVAC ZONE MIXER 4,Inlet,1
 Non-Parent Node Connection,CB_CLASSROOM_6_F4 ZN RETURN AIR NODE,AIRLOOPHVAC:ZONEMIXER,AIR LOOP HVAC ZONE MIXER 4,Inlet,1
 Non-Parent Node Connection,CB_CONFERENCE_ROOM_F4 ZN RETURN AIR NODE,AIRLOOPHVAC:ZONEMIXER,AIR LOOP HVAC ZONE MIXER 4,Inlet,1
 Non-Parent Node Connection,CB_CORRIDOR_F4 ZN RETURN AIR NODE,AIRLOOPHVAC:ZONEMIXER,AIR LOOP HVAC ZONE MIXER 4,Inlet,1
 Non-Parent Node Connection,CB_LAB_1_F4 ZN RETURN AIR NODE,AIRLOOPHVAC:ZONEMIXER,AIR LOOP HVAC ZONE MIXER 4,Inlet,1
 Non-Parent Node Connection,CB_LAB_2_F4 ZN RETURN AIR NODE,AIRLOOPHVAC:ZONEMIXER,AIR LOOP HVAC ZONE MIXER 4,Inlet,1
 Non-Parent Node Connection,CB_LAB_3_F4 ZN RETURN AIR NODE,AIRLOOPHVAC:ZONEMIXER,AIR LOOP HVAC ZONE MIXER 4,Inlet,1
 Non-Parent Node Connection,CB_LAB_4_F4 ZN RETURN AIR NODE,AIRLOOPHVAC:ZONEMIXER,AIR LOOP HVAC ZONE MIXER 4,Inlet,1
 Non-Parent Node Connection,CB_MAIN_STAIRS_F4 ZN RETURN AIR NODE,AIRLOOPHVAC:ZONEMIXER,AIR LOOP HVAC ZONE MIXER 4,Inlet,1
 Non-Parent Node Connection,CB_OFFICES_OPEN_F4 ZN RETURN AIR NODE,AIRLOOPHVAC:ZONEMIXER,AIR LOOP HVAC ZONE MIXER 4,Inlet,1
 Non-Parent Node Connection,CB_SECONDARY_STAIRS_1_F4 ZN RETURN AIR NODE,AIRLOOPHVAC:ZONEMIXER,AIR LOOP HVAC ZONE MIXER 4,Inlet,1
 Non-Parent Node Connection,CB_SECONDARY_STAIRS_2_F4 ZN RETURN AIR NODE,AIRLOOPHVAC:ZONEMIXER,AIR LOOP HVAC ZONE MIXER 4,Inlet,1
 Non-Parent Node Connection,CB_FACULTY_RESTROOMS_1_F4 ZN RETURN AIR NODE,AIRLOOPHVAC:ZONEMIXER,AIR LOOP HVAC ZONE MIXER 4,Inlet,1
 Non-Parent Node Connection,CB_FACULTY_RESTROOMS_2_F4 ZN RETURN AIR NODE,AIRLOOPHVAC:ZONEMIXER,AIR LOOP HVAC ZONE MIXER 4,Inlet,1
 Non-Parent Node Connection,CB_STUDENTS_RESTROOMS_1_F4 ZN RETURN AIR NODE,AIRLOOPHVAC:ZONEMIXER,AIR LOOP HVAC ZONE MIXER 4,Inlet,1
 Non-Parent Node Connection,CB_STUDENTS_RESTROOMS_2_F4 ZN RETURN AIR NODE,AIRLOOPHVAC:ZONEMIXER,AIR LOOP HVAC ZONE MIXER 4,Inlet,1
 Non-Parent Node Connection,CB_UTILITY_F4 ZN RETURN AIR NODE,AIRLOOPHVAC:ZONEMIXER,AIR LOOP HVAC ZONE MIXER 4,Inlet,1
 Non-Parent Node Connection,VAV_1 MIXED AIR NODE,OUTDOORAIR:MIXER,VAV_1 OA SYSTEM OUTDOOR AIR MIXER,Outlet,1
 Non-Parent Node Connection,VAV_1 OUTDOOR AIR NODE,OUTDOORAIR:MIXER,VAV_1 OA SYSTEM OUTDOOR AIR MIXER,Inlet,1
 Non-Parent Node Connection,VAV_1 RELIEF AIR NODE,OUTDOORAIR:MIXER,VAV_1 OA SYSTEM OUTDOOR AIR MIXER,ReliefAir,1
 Non-Parent Node Connection,VAV_1 SUPPLY INLET NODE,OUTDOORAIR:MIXER,VAV_1 OA SYSTEM OUTDOOR AIR MIXER,Inlet,1
 Non-Parent Node Connection,VAV_2 MIXED AIR NODE,OUTDOORAIR:MIXER,VAV_2 OA SYSTEM OUTDOOR AIR MIXER,Outlet,1
 Non-Parent Node Connection,VAV_2 OUTDOOR AIR NODE,OUTDOORAIR:MIXER,VAV_2 OA SYSTEM OUTDOOR AIR MIXER,Inlet,1
 Non-Parent Node Connection,VAV_2 RELIEF AIR NODE,OUTDOORAIR:MIXER,VAV_2 OA SYSTEM OUTDOOR AIR MIXER,ReliefAir,1
 Non-Parent Node Connection,VAV_2 SUPPLY INLET NODE,OUTDOORAIR:MIXER,VAV_2 OA SYSTEM OUTDOOR AIR MIXER,Inlet,1
 Non-Parent Node Connection,VAV_3 MIXED AIR NODE,OUTDOORAIR:MIXER,VAV_3 OA SYSTEM OUTDOOR AIR MIXER,Outlet,1
 Non-Parent Node Connection,VAV_3 OUTDOOR AIR NODE,OUTDOORAIR:MIXER,VAV_3 OA SYSTEM OUTDOOR AIR MIXER,Inlet,1
 Non-Parent Node Connection,VAV_3 RELIEF AIR NODE,OUTDOORAIR:MIXER,VAV_3 OA SYSTEM OUTDOOR AIR MIXER,ReliefAir,1
 Non-Parent Node Connection,VAV_3 SUPPLY INLET NODE,OUTDOORAIR:MIXER,VAV_3 OA SYSTEM OUTDOOR AIR MIXER,Inlet,1
 Non-Parent Node Connection,VAV_4 MIXED AIR NODE,OUTDOORAIR:MIXER,VAV_4 OA SYSTEM OUTDOOR AIR MIXER,Outlet,1
 Non-Parent Node Connection,VAV_4 OUTDOOR AIR NODE,OUTDOORAIR:MIXER,VAV_4 OA SYSTEM OUTDOOR AIR MIXER,Inlet,1
 Non-Parent Node Connection,VAV_4 RELIEF AIR NODE,OUTDOORAIR:MIXER,VAV_4 OA SYSTEM OUTDOOR AIR MIXER,ReliefAir,1
 Non-Parent Node Connection,VAV_4 SUPPLY INLET NODE,OUTDOORAIR:MIXER,VAV_4 OA SYSTEM OUTDOOR AIR MIXER,Inlet,1
 Non-Parent Node Connection,VAV_1 MAIN HTG COIL OUTLET AIR NODE,FAN:VARIABLEVOLUME,VAV_1 FAN,Inlet,1
 Non-Parent Node Connection,VAV_1 SUPPLY OUTLET NODE,FAN:VARIABLEVOLUME,VAV_1 FAN,Outlet,1
 Non-Parent Node Connection,VAV_2 MAIN HTG COIL OUTLET AIR NODE,FAN:VARIABLEVOLUME,VAV_2 FAN,Inlet,1
 Non-Parent Node Connection,VAV_2 SUPPLY OUTLET NODE,FAN:VARIABLEVOLUME,VAV_2 FAN,Outlet,1
 Non-Parent Node Connection,VAV_3 MAIN HTG COIL OUTLET AIR NODE,FAN:VARIABLEVOLUME,VAV_3 FAN,Inlet,1
 Non-Parent Node Connection,VAV_3 SUPPLY OUTLET NODE,FAN:VARIABLEVOLUME,VAV_3 FAN,Outlet,1
 Non-Parent Node Connection,VAV_4 MAIN HTG COIL OUTLET AIR NODE,FAN:VARIABLEVOLUME,VAV_4 FAN,Inlet,1
 Non-Parent Node Connection,VAV_4 SUPPLY OUTLET NODE,FAN:VARIABLEVOLUME,VAV_4 FAN,Outlet,1
 Non-Parent Node Connection,VAV_1 MIXED AIR NODE,CONTROLLER:OUTDOORAIR,VAV_1 OA CONTROLLER,Sensor,1
 Non-Parent Node Connection,VAV_1 OUTDOOR AIR NODE,CONTROLLER:OUTDOORAIR,VAV_1 OA CONTROLLER,Actuator,1
 Non-Parent Node Connection,VAV_1 RELIEF AIR NODE,CONTROLLER:OUTDOORAIR,VAV_1 OA CONTROLLER,Actuator,1
 Non-Parent Node Connection,VAV_1 SUPPLY INLET NODE,CONTROLLER:OUTDOORAIR,VAV_1 OA CONTROLLER,Sensor,1
 Non-Parent Node Connection,VAV_2 MIXED AIR NODE,CONTROLLER:OUTDOORAIR,VAV_2 OA CONTROLLER,Sensor,1
 Non-Parent Node Connection,VAV_2 OUTDOOR AIR NODE,CONTROLLER:OUTDOORAIR,VAV_2 OA CONTROLLER,Actuator,1
 Non-Parent Node Connection,VAV_2 RELIEF AIR NODE,CONTROLLER:OUTDOORAIR,VAV_2 OA CONTROLLER,Actuator,1
 Non-Parent Node Connection,VAV_2 SUPPLY INLET NODE,CONTROLLER:OUTDOORAIR,VAV_2 OA CONTROLLER,Sensor,1
 Non-Parent Node Connection,VAV_3 MIXED AIR NODE,CONTROLLER:OUTDOORAIR,VAV_3 OA CONTROLLER,Sensor,1
 Non-Parent Node Connection,VAV_3 OUTDOOR AIR NODE,CONTROLLER:OUTDOORAIR,VAV_3 OA CONTROLLER,Actuator,1
 Non-Parent Node Connection,VAV_3 RELIEF AIR NODE,CONTROLLER:OUTDOORAIR,VAV_3 OA CONTROLLER,Actuator,1
 Non-Parent Node Connection,VAV_3 SUPPLY INLET NODE,CONTROLLER:OUTDOORAIR,VAV_3 OA CONTROLLER,Sensor,1
 Non-Parent Node Connection,VAV_4 MIXED AIR NODE,CONTROLLER:OUTDOORAIR,VAV_4 OA CONTROLLER,Sensor,1
 Non-Parent Node Connection,VAV_4 OUTDOOR AIR NODE,CONTROLLER:OUTDOORAIR,VAV_4 OA CONTROLLER,Actuator,1
 Non-Parent Node Connection,VAV_4 RELIEF AIR NODE,CONTROLLER:OUTDOORAIR,VAV_4 OA CONTROLLER,Actuator,1
 Non-Parent Node Connection,VAV_4 SUPPLY INLET NODE,CONTROLLER:OUTDOORAIR,VAV_4 OA CONTROLLER,Sensor,1
 Non-Parent Node Connection,CHILLED WATER LOOP SECONDARY PUMP INLET WATER NODE,PUMP:VARIABLESPEED,CHILLED WATER LOOP SECONDARY PUMP,Inlet,1
 Non-Parent Node Connection,CHILLED WATER LOOP SECONDARY PUMP OUTLET WATER NODE,PUMP:VARIABLESPEED,CHILLED WATER LOOP SECONDARY PUMP,Outlet,1
 Non-Parent Node Connection,HOT WATER LOOP SUPPLY INLET NODE,PUMP:VARIABLESPEED,HOT WATER LOOP PUMP,Inlet,1
 Non-Parent Node Connection,HOT WATER LOOP PUMP OUTLET WATER NODE,PUMP:VARIABLESPEED,HOT WATER LOOP PUMP,Outlet,1
 Non-Parent Node Connection,CHILLED WATER LOOP SUPPLY INLET NODE,PUMP:CONSTANTSPEED,CHILLED WATER LOOP PRIMARY PUMP,Inlet,1
 Non-Parent Node Connection,CHILLED WATER LOOP PRIMARY PUMP OUTLET WATER NODE,PUMP:CONSTANTSPEED,CHILLED WATER LOOP PRIMARY PUMP,Outlet,1
 Non-Parent Node Connection,CONDENSER WATER LOOP SUPPLY INLET NODE,PUMP:CONSTANTSPEED,CONDENSER WATER LOOP CONSTANT PUMP,Inlet,1
 Non-Parent Node Connection,CONDENSER WATER LOOP CONSTANT PUMP OUTLET WATER NODE,PUMP:CONSTANTSPEED,CONDENSER WATER LOOP CONSTANT PUMP,Outlet,1
 Non-Parent Node Connection,MAIN SERVICE WATER LOOP SUPPLY INLET NODE,PUMP:CONSTANTSPEED,MAIN SERVICE WATER LOOP CIRCULATOR PUMP,Inlet,1
 Non-Parent Node Connection,MAIN SERVICE WATER LOOP CIRCULATOR PUMP OUTLET WATER NODE,PUMP:CONSTANTSPEED,MAIN SERVICE WATER LOOP CIRCULATOR PUMP,Outlet,1
