Program Version,EnergyPlus, Version 23.1.0-87ed9199d4, YMD=2023.09.09 10:58
! <Version>, Version ID
 Version, 23.1
! <Timesteps per Hour>, #TimeSteps, Minutes per TimeStep {minutes}
 Timesteps per Hour,  6, 10
! <System Convergence Limits>, Minimum System TimeStep {minutes}, Max HVAC Iterations, Minimum Plant Iterations, Maximum Plant Iterations
 System Convergence Limits, 1, 20, 2, 8
! <Simulation Control>, Do Zone Sizing, Do System Sizing, Do Plant Sizing, Do Design Days, Do Weather Simulation, Do HVAC Sizing Simulation
 Simulation Control, Yes, Yes, Yes, No, Yes, Yes
! <Performance Precision Tradeoffs>, Use Coil Direct Simulation, Zone Radiant Exchange Algorithm, Override Mode, Number of Timestep In Hour, Force Euler Method, Minimum Number of Warmup Days, Force Suppress All Begin Environment Resets, Minimum System Timestep, MaxZoneTempDiff, MaxAllowedDelTemp
 Performance Precision Tradeoffs, No, ScriptF, Normal, 6, No, 1, No, 1.0, 0.300, 2.0000E-003
! <Output Reporting Tolerances>, Tolerance for Time Heating Setpoint Not Met, Tolerance for Zone Cooling Setpoint Not Met Time
 Output Reporting Tolerances, 0.200, 0.200, 
! <Site:GroundTemperature:BuildingSurface>,Jan{C},Feb{C},Mar{C},Apr{C},May{C},Jun{C},Jul{C},Aug{C},Sep{C},Oct{C},Nov{C},Dec{C}
 Site:GroundTemperature:BuildingSurface,  18.00,  18.00,  18.00,  18.00,  18.00,  18.00,  18.00,  18.00,  18.00,  18.00,  18.00,  18.00
! <Site:GroundTemperature:FCfactorMethod>,Jan{C},Feb{C},Mar{C},Apr{C},May{C},Jun{C},Jul{C},Aug{C},Sep{C},Oct{C},Nov{C},Dec{C}
 Site:GroundTemperature:FCfactorMethod,  24.20,  18.90,  15.70,  13.60,  15.50,  17.10,  21.20,  26.90,  27.60,  27.90,  27.40,  26.20
! <Site:GroundTemperature:Shallow>,Jan{C},Feb{C},Mar{C},Apr{C},May{C},Jun{C},Jul{C},Aug{C},Sep{C},Oct{C},Nov{C},Dec{C}
 Site:GroundTemperature:Shallow,  13.00,  13.00,  13.00,  13.00,  13.00,  13.00,  13.00,  13.00,  13.00,  13.00,  13.00,  13.00
! <Site:GroundTemperature:Deep>,Jan{C},Feb{C},Mar{C},Apr{C},May{C},Jun{C},Jul{C},Aug{C},Sep{C},Oct{C},Nov{C},Dec{C}
 Site:GroundTemperature:Deep,  16.00,  16.00,  16.00,  16.00,  16.00,  16.00,  16.00,  16.00,  16.00,  16.00,  16.00,  16.00
! <Site:GroundReflectance>,Jan{dimensionless},Feb{dimensionless},Mar{dimensionless},Apr{dimensionless},May{dimensionless},Jun{dimensionless},Jul{dimensionless},Aug{dimensionless},Sep{dimensionless},Oct{dimensionless},Nov{dimensionless},Dec{dimensionless}
 Site:GroundReflectance,  0.20,  0.20,  0.20,  0.20,  0.20,  0.20,  0.20,  0.20,  0.20,  0.20,  0.20,  0.20
! <Site:GroundReflectance:SnowModifier>, Normal, Daylighting {dimensionless}
 Site:GroundReflectance:SnowModifier,   1.000,   1.000
! <Site:GroundReflectance:Snow>,Jan{dimensionless},Feb{dimensionless},Mar{dimensionless},Apr{dimensionless},May{dimensionless},Jun{dimensionless},Jul{dimensionless},Aug{dimensionless},Sep{dimensionless},Oct{dimensionless},Nov{dimensionless},Dec{dimensionless}
 Site:GroundReflectance:Snow,  0.20,  0.20,  0.20,  0.20,  0.20,  0.20,  0.20,  0.20,  0.20,  0.20,  0.20,  0.20
! <Site:GroundReflectance:Snow:Daylighting>,Jan{dimensionless},Feb{dimensionless},Mar{dimensionless},Apr{dimensionless},May{dimensionless},Jun{dimensionless},Jul{dimensionless},Aug{dimensionless},Sep{dimensionless},Oct{dimensionless},Nov{dimensionless},Dec{dimensionless}
 Site:GroundReflectance:Snow:Daylighting,  0.20,  0.20,  0.20,  0.20,  0.20,  0.20,  0.20,  0.20,  0.20,  0.20,  0.20,  0.20
! <Environment:Weather Station>,Wind Sensor Height Above Ground {m},Wind Speed Profile Exponent {},Wind Speed Profile Boundary Layer Thickness {m},Air Temperature Sensor Height Above Ground {m},Wind Speed Modifier Coefficient-Internal,Temperature Modifier Coefficient-Internal
Environment:Weather Station,10.000,0.140,270.000,1.500,1.586,9.750E-003
! <Site:Location>, Location Name, Latitude {N+/S- Deg}, Longitude {E+/W- Deg},  Time Zone Number {GMT+/-}, Elevation {m},  Standard Pressure at Elevation {Pa}, Standard RhoAir at Elevation
Site:Location,SINGAPORE - SGP IWEC Data WMO#=486980,1.37,103.98,8.00,16.00,101133,1.2020
! <Site Water Mains Temperature Information>,Calculation Method{},Water Mains Temperature Schedule Name{},Annual Average Outdoor Air Temperature{C},Maximum Difference In Monthly Average Outdoor Air Temperatures{deltaC},Fixed Default Water Mains Temperature{C}
Site Water Mains Temperature Information,Correlation,NA,21.85,14.30,NA
! <Building Information>, Building Name,North Axis {deg},Terrain,  Loads Convergence Tolerance Value,Temperature Convergence Tolerance Value,  Solar Distribution,Maximum Number of Warmup Days,Minimum Number of Warmup Days
 Building Information,-College-ASHRAE 169-2013-2A created: 2023-09-08 18:26:06 +0800,0.000,City,4.00000E-002,0.20000,FullInteriorAndExterior,25,6
! <Inside Convection Algorithm>, Algorithm {Simple | TARP | CeilingDiffuser | AdaptiveConvectionAlgorithm}
Inside Convection Algorithm,TARP
! <Outside Convection Algorithm>, Algorithm {SimpleCombined | TARP | MoWitt | DOE-2 | AdaptiveConvectionAlgorithm}
Outside Convection Algorithm,TARP
! <Sky Radiance Distribution>, Value {Anisotropic}
Sky Radiance Distribution,Anisotropic
! <Zone Air Solution Algorithm>, Algorithm {ThirdOrderBackwardDifference | AnalyticalSolution | EulerMethod}, Space Heat Balance Sizing, Space Heat Balance Simulation
 Zone Air Solution Algorithm, ThirdOrderBackwardDifference, No, No
! <Zone Air Carbon Dioxide Balance Simulation>, Simulation {Yes/No}, Carbon Dioxide Concentration
 Zone Air Carbon Dioxide Balance Simulation, No,N/A
! <Zone Air Generic Contaminant Balance Simulation>, Simulation {Yes/No}, Generic Contaminant Concentration
 Zone Air Generic Contaminant Balance Simulation, No,N/A
! <Zone Air Mass Flow Balance Simulation>, Enforce Mass Balance, Adjust Zone Mixing and Return {AdjustMixingOnly | AdjustReturnOnly | AdjustMixingThenReturn | AdjustReturnThenMixing | None}, Adjust Zone Infiltration {AddInfiltration | AdjustInfiltration | None}, Infiltration Zones {MixingSourceZonesOnly | AllZones}
 Zone Air Mass Flow Balance Simulation, No,N/A,N/A,N/A
! <HVACSystemRootFindingAlgorithm>, Value {RegulaFalsi | Bisection | BisectionThenRegulaFalsi | RegulaFalsiThenBisection}
 HVACSystemRootFindingAlgorithm, RegulaFalsi
! <Environment:Site Atmospheric Variation>,Wind Speed Profile Exponent {},Wind Speed Profile Boundary Layer Thickness {m},Air Temperature Gradient Coefficient {K/m}
Environment:Site Atmospheric Variation,0.330,460.000,6.500000E-003
! <Surface Geometry>,Starting Corner,Vertex Input Direction,Coordinate System,Daylight Reference Point Coordinate System,Rectangular (Simple) Surface Coordinate System
 Surface Geometry,UpperLeftCorner,Counterclockwise,RelativeCoordinateSystem,RelativeCoordinateSystem,RelativeToZoneOrigin
! <Surface Heat Transfer Algorithm>, Value {CTF - ConductionTransferFunction | EMPD - MoisturePenetrationDepthConductionTransferFunction | CondFD - ConductionFiniteDifference | HAMT - CombinedHeatAndMoistureFiniteElement} - Description,Inside Surface Max Temperature Limit{C}, Surface Convection Coefficient Lower Limit {W/m2-K}, Surface Convection Coefficient Upper Limit {W/m2-K}
Surface Heat Transfer Algorithm, CTF - ConductionTransferFunction,200,0.10,1000.0
! <Shading Summary>, Number of Fixed Detached Shades, Number of Building Detached Shades, Number of Attached Shades
 Shading Summary,0,0,0
! <Zone Summary>, Number of Zones, Number of Zone Surfaces, Number of SubSurfaces
 Zone Summary,117,1149,104
! <Zone Information>,Zone Name,North Axis {deg},Origin X-Coordinate {m},Origin Y-Coordinate {m},Origin Z-Coordinate {m},Centroid X-Coordinate {m},Centroid Y-Coordinate {m},Centroid Z-Coordinate {m},Type,Zone Multiplier,Zone List Multiplier,Minimum X {m},Maximum X {m},Minimum Y {m},Maximum Y {m},Minimum Z {m},Maximum Z {m},Ceiling Height {m},Volume {m3},Zone Inside Convection Algorithm {Simple-Detailed-CeilingDiffuser-TrombeWall},Zone Outside Convection Algorithm {Simple-Detailed-Tarp-MoWitt-DOE-2-BLAST}, Floor Area {m2},Exterior Gross Wall Area {m2},Exterior Net Wall Area {m2},Exterior Window Area {m2}, Number of Surfaces, Number of SubSurfaces, Number of Shading SubSurfaces,  Part of Total Building Area
 Zone Information, CB_CAFE_STUDY_LOUNGE_F1 ZN,0.0,0.00,37.80,0.00,8.99,34.95,1.98,1,1,1,0.00,18.29,29.57,40.08,0.00,3.96,3.96,712.31,TARP,TARP,179.77,105.07,72.78,32.29,13,2,0,Yes
 Zone Information, CB_CLASSROOM_1_F2 ZN,0.0,63.40,29.57,3.96,59.97,33.68,5.94,1,1,1,56.54,63.40,29.57,37.80,3.96,7.92,3.96,223.63,TARP,TARP,56.44,59.78,41.49,18.29,7,2,0,Yes
 Zone Information, CB_CLASSROOM_1_F3 ZN,0.0,56.54,37.80,7.92,59.97,33.68,9.91,1,1,1,56.54,63.40,29.57,37.80,7.92,11.89,3.96,223.63,TARP,TARP,56.44,59.78,41.40,18.39,7,2,0,Yes
 Zone Information, CB_CLASSROOM_1_F4 ZN,0.0,5.49,37.80,11.89,4.57,33.68,13.87,1,1,1,-9.77E-015,9.14,29.57,37.80,11.89,15.85,3.96,298.18,TARP,TARP,75.25,68.84,47.71,21.13,8,2,0,Yes
 Zone Information, CB_CLASSROOM_2_F2 ZN,0.0,49.68,37.80,3.96,53.11,33.68,5.94,1,1,1,49.68,56.54,29.57,37.80,3.96,7.92,3.96,223.63,TARP,TARP,56.44,27.17,18.86,8.32,7,1,0,Yes
 Zone Information, CB_CLASSROOM_2_F3 ZN,0.0,56.54,29.57,7.92,53.11,33.68,9.91,1,1,1,49.68,56.54,29.57,37.80,7.92,11.89,3.96,223.63,TARP,TARP,56.44,27.17,18.82,8.36,7,1,0,Yes
 Zone Information, CB_CLASSROOM_2_F4 ZN,0.0,9.14,37.80,11.89,13.72,33.68,13.87,1,1,1,9.14,18.29,29.57,37.80,11.89,15.85,3.96,298.18,TARP,TARP,75.25,36.23,25.11,11.12,7,1,0,Yes
 Zone Information, CB_CLASSROOM_3_F2 ZN,0.0,49.68,29.57,3.96,46.25,33.68,5.94,1,1,1,42.82,49.68,29.57,37.80,3.96,7.92,3.96,223.63,TARP,TARP,56.44,27.17,18.85,8.32,8,1,0,Yes
 Zone Information, CB_CLASSROOM_3_F3 ZN,0.0,49.68,29.57,7.92,46.25,33.68,9.91,1,1,1,42.82,49.68,29.57,37.80,7.92,11.89,3.96,223.63,TARP,TARP,56.44,27.17,18.81,8.36,8,1,0,Yes
 Zone Information, CB_CLASSROOM_3_F4 ZN,0.0,27.43,29.57,11.89,22.86,33.68,13.87,1,1,1,18.29,27.43,29.57,37.80,11.89,15.85,3.96,298.18,TARP,TARP,75.25,36.23,25.12,11.11,8,1,0,Yes
 Zone Information, CB_CLASSROOM_4_F2 ZN,0.0,35.97,37.80,3.96,39.40,33.68,5.94,1,1,1,35.97,42.82,29.57,37.80,3.96,7.92,3.96,223.63,TARP,TARP,56.44,27.17,18.87,8.30,7,1,0,Yes
 Zone Information, CB_CLASSROOM_4_F3 ZN,0.0,42.82,29.57,7.92,39.40,33.68,9.91,1,1,1,35.97,42.82,29.57,37.80,7.92,11.89,3.96,223.63,TARP,TARP,56.44,27.17,18.82,8.36,7,1,0,Yes
 Zone Information, CB_CLASSROOM_4_F4 ZN,0.0,35.97,37.80,11.89,40.54,33.68,13.87,1,1,1,35.97,45.11,29.57,37.80,11.89,15.85,3.96,298.18,TARP,TARP,75.25,36.23,25.12,11.11,8,1,0,Yes
 Zone Information, CB_CLASSROOM_5_F2 ZN,0.0,27.43,29.57,3.96,24.00,33.68,5.94,1,1,1,20.57,27.43,29.57,37.80,3.96,7.92,3.96,223.63,TARP,TARP,56.44,27.17,18.87,8.31,7,1,0,Yes
 Zone Information, CB_CLASSROOM_5_F3 ZN,0.0,27.43,29.57,7.92,24.00,33.68,9.91,1,1,1,20.57,27.43,29.57,37.80,7.92,11.89,3.96,223.63,TARP,TARP,56.44,27.17,18.82,8.35,7,1,0,Yes
 Zone Information, CB_CLASSROOM_5_F4 ZN,0.0,54.25,29.57,11.89,49.68,33.68,13.87,1,1,1,45.11,54.25,29.57,37.80,11.89,15.85,3.96,298.18,TARP,TARP,75.25,36.23,25.11,11.13,7,1,0,Yes
 Zone Information, CB_CLASSROOM_6_F2 ZN,0.0,18.29,37.80,3.96,17.15,33.68,5.94,1,1,1,13.72,20.57,29.57,37.80,3.96,7.92,3.96,223.63,TARP,TARP,56.44,27.17,18.90,8.27,8,1,0,Yes
 Zone Information, CB_CLASSROOM_6_F3 ZN,0.0,20.57,29.57,7.92,17.15,33.68,9.91,1,1,1,13.72,20.57,29.57,37.80,7.92,11.89,3.96,223.63,TARP,TARP,56.44,27.17,18.82,8.36,8,1,0,Yes
 Zone Information, CB_CLASSROOM_6_F4 ZN,0.0,63.40,29.57,11.89,58.83,33.68,13.87,1,1,1,54.25,63.40,29.57,37.80,11.89,15.85,3.96,298.18,TARP,TARP,75.25,68.84,47.68,21.16,8,2,0,Yes
 Zone Information, CB_CLASSROOM_7_F2 ZN,0.0,13.72,29.57,3.96,10.29,33.68,5.94,1,1,1,6.86,13.72,29.57,37.80,3.96,7.92,3.96,223.63,TARP,TARP,56.44,27.17,18.92,8.25,7,1,0,Yes
 Zone Information, CB_CLASSROOM_7_F3 ZN,0.0,13.72,29.57,7.92,10.29,33.68,9.91,1,1,1,6.86,13.72,29.57,37.80,7.92,11.89,3.96,223.63,TARP,TARP,56.44,27.17,18.82,8.36,7,1,0,Yes
 Zone Information, CB_CLASSROOM_8_F2 ZN,0.0,5.49,37.80,3.96,3.43,33.68,5.94,1,1,1,0.00,6.86,29.57,37.80,3.96,7.92,3.96,223.63,TARP,TARP,56.44,59.78,41.47,18.31,7,2,0,Yes
 Zone Information, CB_CLASSROOM_8_F3 ZN,0.0,6.86,29.57,7.92,3.43,33.68,9.91,1,1,1,0.00,6.86,29.57,37.80,7.92,11.89,3.96,223.63,TARP,TARP,56.44,59.78,41.39,18.39,7,2,0,Yes
 Zone Information, CB_CONFERENCE_ROOM_F1 ZN,0.0,21.34,45.11,0.00,22.86,42.60,1.98,1,1,1,18.29,27.43,40.08,45.11,0.00,3.96,3.96,182.22,TARP,TARP,45.99,0.00,0.00,0.00,8,0,0,Yes
 Zone Information, CB_CONFERENCE_ROOM_F2 ZN,0.0,18.29,45.11,3.96,21.34,42.60,5.94,1,1,1,18.29,24.38,40.08,45.11,3.96,7.92,3.96,121.48,TARP,TARP,30.66,0.00,0.00,0.00,6,0,0,Yes
 Zone Information, CB_CONFERENCE_ROOM_F3 ZN,0.0,24.38,40.08,7.92,21.34,42.60,9.91,1,1,1,18.29,24.38,40.08,45.11,7.92,11.89,3.96,121.48,TARP,TARP,30.66,0.00,0.00,0.00,6,0,0,Yes
 Zone Information, CB_CONFERENCE_ROOM_F4 ZN,0.0,18.29,45.11,11.89,21.34,42.60,13.87,1,1,1,18.29,24.38,40.08,45.11,11.89,15.85,3.96,121.48,TARP,TARP,30.66,0.00,0.00,0.00,6,0,0,Yes
 Zone Information, CB_CORRIDOR_1_F3 ZN,0.0,33.53,29.57,7.92,30.90,34.33,9.91,1,1,1,27.43,33.53,29.57,37.80,7.92,11.89,3.96,125.16,TARP,TARP,31.59,12.08,8.36,3.72,9,1,0,Yes
 Zone Information, CB_CORRIDOR_2_F3 ZN,0.0,45.11,40.08,7.92,31.70,38.94,9.91,1,1,1,18.29,45.11,37.80,40.08,7.92,11.89,3.96,242.96,TARP,TARP,61.32,0.00,0.00,0.00,15,0,0,Yes
 Zone Information, CB_CORRIDOR_F1 ZN,0.0,18.29,29.57,0.00,36.15,37.28,1.98,1,1,1,18.29,57.91,29.57,40.08,-2.21E-029,3.96,3.96,638.69,TARP,TARP,122.17,12.08,8.39,3.69,21,1,0,Yes
 Zone Information, CB_CORRIDOR_F2 ZN,0.0,41.30,40.08,3.96,31.47,37.13,5.94,1,1,1,18.29,45.11,29.57,40.08,3.96,7.92,3.96,368.12,TARP,TARP,92.90,12.08,8.39,3.69,21,1,0,Yes
 Zone Information, CB_CORRIDOR_F4 ZN,0.0,35.97,37.80,11.89,31.56,37.85,13.87,1,1,1,5.49,57.91,29.57,40.08,11.89,15.85,3.96,600.03,TARP,TARP,151.43,12.08,8.39,3.69,31,1,0,Yes
 Zone Information, CB_ENTRANCE_LOBBY_F1 ZN,0.0,18.29,29.57,0.00,22.86,33.68,1.98,1,1,1,18.29,27.43,29.57,37.80,0.00,3.96,3.96,298.18,TARP,TARP,75.25,36.23,25.09,11.14,8,1,0,Yes
 Zone Information, CB_FACULTY_OFFICE_1_F2 ZN,0.0,45.11,51.21,3.96,43.43,53.04,5.94,1,1,1,41.76,45.11,51.21,54.86,3.96,7.92,3.96,48.59,TARP,TARP,12.26,13.29,9.20,4.08,6,1,0,Yes
 Zone Information, CB_FACULTY_OFFICE_1_F3 ZN,0.0,41.76,54.86,7.92,43.43,53.04,9.91,1,1,1,41.76,45.11,51.21,54.86,7.92,11.89,3.96,48.59,TARP,TARP,12.26,13.29,9.20,4.09,6,1,0,Yes
 Zone Information, CB_FACULTY_OFFICE_1_F4 ZN,0.0,45.11,51.21,11.89,43.43,53.04,13.87,1,1,1,41.76,45.11,51.21,54.86,11.89,15.85,3.96,48.59,TARP,TARP,12.26,13.29,9.22,4.07,6,1,0,Yes
 Zone Information, CB_FACULTY_OFFICE_2_F2 ZN,0.0,38.40,54.86,3.96,40.08,53.04,5.94,1,1,1,38.40,41.76,51.21,54.86,3.96,7.92,3.96,48.59,TARP,TARP,12.26,13.29,9.21,4.07,6,1,0,Yes
 Zone Information, CB_FACULTY_OFFICE_2_F3 ZN,0.0,38.40,54.86,7.92,40.08,53.04,9.91,1,1,1,38.40,41.76,51.21,54.86,7.92,11.89,3.96,48.59,TARP,TARP,12.26,13.29,9.20,4.09,6,1,0,Yes
 Zone Information, CB_FACULTY_OFFICE_2_F4 ZN,0.0,38.40,54.86,11.89,40.08,53.04,13.87,1,1,1,38.40,41.76,51.21,54.86,11.89,15.85,3.96,48.59,TARP,TARP,12.26,13.29,9.20,4.08,6,1,0,Yes
 Zone Information, CB_FACULTY_OFFICE_3_F2 ZN,0.0,38.40,51.21,3.96,36.73,53.04,5.94,1,1,1,35.05,38.40,51.21,54.86,3.96,7.92,3.96,48.59,TARP,TARP,12.26,13.29,9.23,4.06,6,1,0,Yes
 Zone Information, CB_FACULTY_OFFICE_3_F3 ZN,0.0,35.05,54.86,7.92,36.73,53.04,9.91,1,1,1,35.05,38.40,51.21,54.86,7.92,11.89,3.96,48.59,TARP,TARP,12.26,13.29,9.20,4.08,6,1,0,Yes
 Zone Information, CB_FACULTY_OFFICE_3_F4 ZN,0.0,38.40,51.21,11.89,36.73,53.04,13.87,1,1,1,35.05,38.40,51.21,54.86,11.89,15.85,3.96,48.59,TARP,TARP,12.26,13.29,9.20,4.09,6,1,0,Yes
 Zone Information, CB_FACULTY_OFFICE_4_F2 ZN,0.0,31.70,54.86,3.96,33.38,53.04,5.94,1,1,1,31.70,35.05,51.21,54.86,3.96,7.92,3.96,48.59,TARP,TARP,12.26,13.29,9.23,4.05,6,1,0,Yes
 Zone Information, CB_FACULTY_OFFICE_4_F3 ZN,0.0,31.70,54.86,7.92,33.38,53.04,9.91,1,1,1,31.70,35.05,51.21,54.86,7.92,11.89,3.96,48.59,TARP,TARP,12.26,13.29,9.20,4.08,6,1,0,Yes
 Zone Information, CB_FACULTY_OFFICE_4_F4 ZN,0.0,31.70,54.86,11.89,33.38,53.04,13.87,1,1,1,31.70,35.05,51.21,54.86,11.89,15.85,3.96,48.59,TARP,TARP,12.26,13.29,9.20,4.09,6,1,0,Yes
 Zone Information, CB_FACULTY_OFFICE_5_F2 ZN,0.0,31.70,51.21,3.96,30.02,53.04,5.94,1,1,1,28.35,31.70,51.21,54.86,3.96,7.92,3.96,48.59,TARP,TARP,12.26,13.29,9.24,4.05,6,1,0,Yes
 Zone Information, CB_FACULTY_OFFICE_5_F3 ZN,0.0,28.35,54.86,7.92,30.02,53.04,9.91,1,1,1,28.35,31.70,51.21,54.86,7.92,11.89,3.96,48.59,TARP,TARP,12.26,13.29,9.20,4.09,6,1,0,Yes
 Zone Information, CB_FACULTY_OFFICE_5_F4 ZN,0.0,31.70,51.21,11.89,30.02,53.04,13.87,1,1,1,28.35,31.70,51.21,54.86,11.89,15.85,3.96,48.59,TARP,TARP,12.26,13.29,9.20,4.09,6,1,0,Yes
 Zone Information, CB_FACULTY_OFFICE_6_F2 ZN,0.0,24.99,54.86,3.96,26.67,53.04,5.94,1,1,1,24.99,28.35,51.21,54.86,3.96,7.92,3.96,48.59,TARP,TARP,12.26,13.29,9.22,4.06,6,1,0,Yes
 Zone Information, CB_FACULTY_OFFICE_6_F3 ZN,0.0,24.99,54.86,7.92,26.67,53.04,9.91,1,1,1,24.99,28.35,51.21,54.86,7.92,11.89,3.96,48.59,TARP,TARP,12.26,13.29,9.20,4.08,6,1,0,Yes
 Zone Information, CB_FACULTY_OFFICE_6_F4 ZN,0.0,24.99,54.86,11.89,26.67,53.04,13.87,1,1,1,24.99,28.35,51.21,54.86,11.89,15.85,3.96,48.59,TARP,TARP,12.26,13.29,9.20,4.09,6,1,0,Yes
 Zone Information, CB_FACULTY_OFFICE_7_F2 ZN,0.0,24.99,51.21,3.96,23.32,53.04,5.94,1,1,1,21.64,24.99,51.21,54.86,3.96,7.92,3.96,48.59,TARP,TARP,12.26,13.29,9.23,4.06,6,1,0,Yes
 Zone Information, CB_FACULTY_OFFICE_7_F3 ZN,0.0,21.64,54.86,7.92,23.32,53.04,9.91,1,1,1,21.64,24.99,51.21,54.86,7.92,11.89,3.96,48.59,TARP,TARP,12.26,13.29,9.20,4.08,6,1,0,Yes
 Zone Information, CB_FACULTY_OFFICE_7_F4 ZN,0.0,24.99,51.21,11.89,23.32,53.04,13.87,1,1,1,21.64,24.99,51.21,54.86,11.89,15.85,3.96,48.59,TARP,TARP,12.26,13.29,9.20,4.09,6,1,0,Yes
 Zone Information, CB_FACULTY_OFFICE_8_F2 ZN,0.0,18.29,54.86,3.96,19.96,53.04,5.94,1,1,1,18.29,21.64,51.21,54.86,3.96,7.92,3.96,48.59,TARP,TARP,12.26,13.29,9.22,4.06,7,1,0,Yes
 Zone Information, CB_FACULTY_OFFICE_8_F3 ZN,0.0,21.64,51.21,7.92,19.96,53.04,9.91,1,1,1,18.29,21.64,51.21,54.86,7.92,11.89,3.96,48.59,TARP,TARP,12.26,13.29,9.20,4.08,6,1,0,Yes
 Zone Information, CB_FACULTY_OFFICE_8_F4 ZN,0.0,18.29,54.86,11.89,19.96,53.04,13.87,1,1,1,18.29,21.64,51.21,54.86,11.89,15.85,3.96,48.59,TARP,TARP,12.26,13.29,9.20,4.09,6,1,0,Yes
 Zone Information, CB_FACULTY_RESTROOMS_1_F2 ZN,0.0,33.53,40.08,3.96,35.51,41.34,5.94,1,1,1,33.53,37.49,40.08,42.60,3.96,7.92,3.96,39.48,TARP,TARP,9.96,0.00,0.00,0.00,6,0,0,Yes
 Zone Information, CB_FACULTY_RESTROOMS_1_F3 ZN,0.0,37.49,42.60,7.92,35.51,41.34,9.91,1,1,1,33.53,37.49,40.08,42.60,7.92,11.89,3.96,39.48,TARP,TARP,9.96,0.00,0.00,0.00,6,0,0,Yes
 Zone Information, CB_FACULTY_RESTROOMS_1_F4 ZN,0.0,37.49,45.11,11.89,35.51,43.85,13.87,1,1,1,33.53,37.49,42.60,45.11,11.89,15.85,3.96,39.48,TARP,TARP,9.96,0.00,0.00,0.00,6,0,0,Yes
 Zone Information, CB_FACULTY_RESTROOMS_2_F2 ZN,0.0,37.49,45.11,3.96,35.51,43.85,5.94,1,1,1,33.53,37.49,42.60,45.11,3.96,7.92,3.96,39.48,TARP,TARP,9.96,0.00,0.00,0.00,6,0,0,Yes
 Zone Information, CB_FACULTY_RESTROOMS_2_F3 ZN,0.0,33.53,42.60,7.92,35.51,43.85,9.91,1,1,1,33.53,37.49,42.60,45.11,7.92,11.89,3.96,39.48,TARP,TARP,9.96,0.00,0.00,0.00,6,0,0,Yes
 Zone Information, CB_FACULTY_RESTROOMS_2_F4 ZN,0.0,33.53,40.08,11.89,35.51,41.34,13.87,1,1,1,33.53,37.49,40.08,42.60,11.89,15.85,3.96,39.48,TARP,TARP,9.96,0.00,0.00,0.00,6,0,0,Yes
 Zone Information, CB_LAB_1_F4 ZN,0.0,0.00,54.86,11.89,4.57,47.47,13.87,1,1,1,0.00,9.14,40.08,54.86,11.89,15.85,3.96,535.61,TARP,TARP,135.17,94.81,65.73,29.08,7,2,0,Yes
 Zone Information, CB_LAB_2_F4 ZN,0.0,9.14,54.86,11.89,13.72,47.47,13.87,1,1,1,9.14,18.29,40.08,54.86,11.89,15.85,3.96,535.61,TARP,TARP,135.17,36.23,25.11,11.12,8,1,0,Yes
 Zone Information, CB_LAB_3_F4 ZN,0.0,54.25,54.86,11.89,49.68,47.47,13.87,1,1,1,45.11,54.25,40.08,54.86,11.89,15.85,3.96,535.61,TARP,TARP,135.17,36.23,25.11,11.12,8,1,0,Yes
 Zone Information, CB_LAB_4_F4 ZN,0.0,63.40,40.08,11.89,58.83,47.47,13.87,1,1,1,54.25,63.40,40.08,54.86,11.89,15.85,3.96,535.61,TARP,TARP,135.17,94.81,65.71,29.10,7,2,0,Yes
 Zone Information, CB_LECTURE_ROOM_1_F1 ZN,0.0,63.40,54.86,0.00,54.25,47.47,1.98,1,1,1,45.11,63.40,40.08,54.86,0.00,3.96,3.96,1071.23,TARP,TARP,270.35,131.04,90.73,40.31,10,2,0,Yes
 Zone Information, CB_LECTURE_ROOM_2_F1 ZN,0.0,45.11,29.57,0.00,54.25,33.68,1.98,1,1,1,45.11,63.40,29.57,37.80,0.00,3.96,3.96,596.35,TARP,TARP,150.50,105.07,72.75,32.32,10,2,0,Yes
 Zone Information, CB_LIBRARY_MEDIA_CENTER_F1 ZN,0.0,18.29,45.11,0.00,9.14,47.47,1.98,1,1,1,0.00,18.29,40.08,54.86,0.00,3.96,3.96,1071.23,TARP,TARP,270.35,131.04,90.80,40.24,10,2,0,Yes
 Zone Information, CB_MAIN_STAIRS_F1 ZN,0.0,27.43,29.57,0.00,28.96,32.61,1.98,1,1,1,27.43,30.48,29.57,35.66,0.00,3.96,3.96,73.62,TARP,TARP,18.58,12.08,8.39,3.69,6,1,0,Yes
 Zone Information, CB_MAIN_STAIRS_F2 ZN,0.0,27.43,29.57,3.96,28.96,32.61,5.94,1,1,1,27.43,30.48,29.57,35.66,3.96,7.92,3.96,73.62,TARP,TARP,18.58,12.08,8.42,3.66,6,1,0,Yes
 Zone Information, CB_MAIN_STAIRS_F3 ZN,0.0,30.48,29.57,7.92,28.96,32.61,9.91,1,1,1,27.43,30.48,29.57,35.66,7.92,11.89,3.96,73.62,TARP,TARP,18.58,12.08,8.37,3.71,6,1,0,Yes
 Zone Information, CB_MAIN_STAIRS_F4 ZN,0.0,27.43,29.57,11.89,28.96,32.61,13.87,1,1,1,27.43,30.48,29.57,35.66,11.89,15.85,3.96,73.62,TARP,TARP,18.58,12.08,8.42,3.66,6,1,0,Yes
 Zone Information, CB_OFFICES_ENCLOSED_1_F1 ZN,0.0,45.11,51.21,0.00,43.43,53.04,1.98,1,1,1,41.76,45.11,51.21,54.86,0.00,3.96,3.96,48.59,TARP,TARP,12.26,13.29,9.20,4.08,6,1,0,Yes
 Zone Information, CB_OFFICES_ENCLOSED_2_F1 ZN,0.0,38.40,54.86,0.00,40.08,53.04,1.98,1,1,1,38.40,41.76,51.21,54.86,0.00,3.96,3.96,48.59,TARP,TARP,12.26,13.29,9.20,4.08,6,1,0,Yes
 Zone Information, CB_OFFICES_ENCLOSED_3_F1 ZN,0.0,38.40,51.21,0.00,36.73,53.04,1.98,1,1,1,35.05,38.40,51.21,54.86,0.00,3.96,3.96,48.59,TARP,TARP,12.26,13.29,9.20,4.08,6,1,0,Yes
 Zone Information, CB_OFFICES_ENCLOSED_4_F1 ZN,0.0,31.70,54.86,0.00,33.38,53.04,1.98,1,1,1,31.70,35.05,51.21,54.86,0.00,3.96,3.96,48.59,TARP,TARP,12.26,13.29,9.20,4.08,6,1,0,Yes
 Zone Information, CB_OFFICES_ENCLOSED_5_F1 ZN,0.0,31.70,51.21,0.00,30.02,53.04,1.98,1,1,1,28.35,31.70,51.21,54.86,0.00,3.96,3.96,48.59,TARP,TARP,12.26,13.29,9.20,4.08,6,1,0,Yes
 Zone Information, CB_OFFICES_ENCLOSED_6_F1 ZN,0.0,24.99,54.86,0.00,26.67,53.04,1.98,1,1,1,24.99,28.35,51.21,54.86,0.00,3.96,3.96,48.59,TARP,TARP,12.26,13.29,9.20,4.08,6,1,0,Yes
 Zone Information, CB_OFFICES_ENCLOSED_7_F1 ZN,0.0,24.99,51.21,0.00,23.32,53.04,1.98,1,1,1,21.64,24.99,51.21,54.86,0.00,3.96,3.96,48.59,TARP,TARP,12.26,13.29,9.20,4.08,6,1,0,Yes
 Zone Information, CB_OFFICES_ENCLOSED_8_F1 ZN,0.0,18.29,54.86,0.00,19.96,53.04,1.98,1,1,1,18.29,21.64,51.21,54.86,0.00,3.96,3.96,48.59,TARP,TARP,12.26,13.29,9.21,4.07,6,1,0,Yes
 Zone Information, CB_OFFICES_OPEN_F1 ZN,0.0,18.29,45.11,0.00,31.29,46.09,1.98,1,1,1,18.29,45.11,40.08,51.21,0.00,3.96,3.96,769.37,TARP,TARP,194.17,0.00,0.00,0.00,22,0,0,Yes
 Zone Information, CB_OFFICES_OPEN_F2 ZN,0.0,37.49,45.11,3.96,30.86,45.92,5.94,1,1,1,18.29,45.11,40.08,51.21,3.96,7.92,3.96,830.11,TARP,TARP,209.50,0.00,0.00,0.00,21,0,0,Yes
 Zone Information, CB_OFFICES_OPEN_F3 ZN,0.0,18.29,45.11,7.92,30.75,45.98,9.91,1,1,1,18.29,45.11,40.08,51.21,7.92,11.89,3.96,830.11,TARP,TARP,209.50,0.00,0.00,0.00,20,0,0,Yes
 Zone Information, CB_OFFICES_OPEN_F4 ZN,0.0,18.29,45.11,11.89,30.75,45.98,13.87,1,1,1,18.29,45.11,40.08,51.21,11.89,15.85,3.96,830.11,TARP,TARP,209.50,0.00,0.00,0.00,20,0,0,Yes
 Zone Information, CB_PUBLIC_ELEVATORS_F1 ZN,0.0,33.53,29.57,0.00,34.75,32.00,1.98,1,1,1,33.53,35.97,29.57,34.44,0.00,3.96,3.96,47.12,TARP,TARP,11.89,9.66,6.72,2.94,6,1,0,Yes
 Zone Information, CB_PUBLIC_ELEVATORS_F2 ZN,0.0,33.53,29.57,3.96,34.75,32.00,5.94,1,1,1,33.53,35.97,29.57,34.44,3.96,7.92,3.96,47.12,TARP,TARP,11.89,9.66,6.72,2.94,6,1,0,Yes
 Zone Information, CB_PUBLIC_ELEVATORS_F3 ZN,0.0,33.94,34.44,7.92,34.75,32.00,9.91,1,1,1,33.53,35.97,29.57,34.44,7.92,11.89,3.96,47.12,TARP,TARP,11.89,9.66,6.70,2.97,6,1,0,Yes
 Zone Information, CB_PUBLIC_ELEVATORS_F4 ZN,0.0,33.53,29.57,11.89,34.75,32.00,13.87,1,1,1,33.53,35.97,29.57,34.44,11.89,15.85,3.96,47.12,TARP,TARP,11.89,9.66,6.72,2.94,6,1,0,Yes
 Zone Information, CB_SECONDARY_STAIRS_1_F1 ZN,0.0,0.00,40.08,0.00,2.74,38.94,1.98,1,1,1,0.00,5.49,37.80,40.08,0.00,3.96,3.96,49.70,TARP,TARP,12.54,9.06,6.33,2.73,6,1,0,Yes
 Zone Information, CB_SECONDARY_STAIRS_1_F2 ZN,0.0,5.78E-015,40.08,3.96,2.74,38.94,5.94,1,1,1,5.78E-015,5.49,37.80,40.08,3.96,7.92,3.96,49.70,TARP,TARP,12.54,9.06,6.33,2.72,6,1,0,Yes
 Zone Information, CB_SECONDARY_STAIRS_1_F3 ZN,0.0,5.49,37.80,7.92,2.74,38.94,9.91,1,1,1,0.00,5.49,37.80,40.08,7.92,11.89,3.96,49.70,TARP,TARP,12.54,9.06,6.27,2.78,6,1,0,Yes
 Zone Information, CB_SECONDARY_STAIRS_1_F4 ZN,0.0,0.00,40.08,11.89,2.74,38.94,13.87,1,1,1,0.00,5.49,37.80,40.08,11.89,15.85,3.96,49.70,TARP,TARP,12.54,9.06,6.33,2.73,6,1,0,Yes
 Zone Information, CB_SECONDARY_STAIRS_2_F1 ZN,0.0,63.40,37.80,0.00,60.66,38.94,1.98,1,1,1,57.91,63.40,37.80,40.08,0.00,3.96,3.96,49.70,TARP,TARP,12.54,9.06,6.27,2.78,6,1,0,Yes
 Zone Information, CB_SECONDARY_STAIRS_2_F2 ZN,0.0,63.40,37.80,3.96,60.66,38.94,5.94,1,1,1,57.91,63.40,37.80,40.08,3.96,7.92,3.96,49.70,TARP,TARP,12.54,9.06,6.30,2.75,6,1,0,Yes
 Zone Information, CB_SECONDARY_STAIRS_2_F3 ZN,0.0,63.40,40.08,7.92,60.66,38.94,9.91,1,1,1,57.91,63.40,37.80,40.08,7.92,11.89,3.96,49.70,TARP,TARP,12.54,9.06,6.27,2.79,6,1,0,Yes
 Zone Information, CB_SECONDARY_STAIRS_2_F4 ZN,0.0,63.40,37.80,11.89,60.66,38.94,13.87,1,1,1,57.91,63.40,37.80,40.08,11.89,15.85,3.96,49.70,TARP,TARP,12.54,9.06,6.28,2.78,6,1,0,Yes
 Zone Information, CB_STAFF_RESTROOMS_1_F1 ZN,0.0,37.49,45.11,0.00,35.51,43.85,1.98,1,1,1,33.53,37.49,42.60,45.11,0.00,3.96,3.96,39.48,TARP,TARP,9.96,0.00,0.00,0.00,7,0,0,Yes
 Zone Information, CB_STAFF_RESTROOMS_2_F1 ZN,0.0,33.53,40.08,0.00,35.51,41.34,1.98,1,1,1,33.53,37.49,40.08,42.60,0.00,3.96,3.96,39.48,TARP,TARP,9.96,0.00,0.00,0.00,6,0,0,Yes
 Zone Information, CB_STORAGE_F1 ZN,0.0,45.11,29.57,0.00,40.54,33.68,1.98,1,1,1,35.97,45.11,29.57,37.80,0.00,3.96,3.96,298.18,TARP,TARP,75.25,36.23,25.10,11.13,8,1,0,Yes
 Zone Information, CB_STUDENTS_RESTROOMS_1_F1 ZN,0.0,37.49,45.11,0.00,39.40,42.60,1.98,1,1,1,37.49,41.30,40.08,45.11,0.00,3.96,3.96,75.92,TARP,TARP,19.16,0.00,0.00,0.00,7,0,0,Yes
 Zone Information, CB_STUDENTS_RESTROOMS_1_F2 ZN,0.0,37.49,45.11,3.96,39.40,42.60,5.94,1,1,1,37.49,41.30,40.08,45.11,3.96,7.92,3.96,75.92,TARP,TARP,19.16,0.00,0.00,0.00,7,0,0,Yes
 Zone Information, CB_STUDENTS_RESTROOMS_1_F3 ZN,0.0,41.30,40.08,7.92,39.40,42.60,9.91,1,1,1,37.49,41.30,40.08,45.11,7.92,11.89,3.96,75.92,TARP,TARP,19.16,0.00,0.00,0.00,7,0,0,Yes
 Zone Information, CB_STUDENTS_RESTROOMS_1_F4 ZN,0.0,37.49,45.11,11.89,39.40,42.60,13.87,1,1,1,37.49,41.30,40.08,45.11,11.89,15.85,3.96,75.92,TARP,TARP,19.16,0.00,0.00,0.00,7,0,0,Yes
 Zone Information, CB_STUDENTS_RESTROOMS_2_F1 ZN,0.0,45.11,40.08,0.00,43.21,42.60,1.98,1,1,1,41.30,45.11,40.08,45.11,0.00,3.96,3.96,75.92,TARP,TARP,19.16,0.00,0.00,0.00,6,0,0,Yes
 Zone Information, CB_STUDENTS_RESTROOMS_2_F2 ZN,0.0,45.11,40.08,3.96,43.21,42.60,5.94,1,1,1,41.30,45.11,40.08,45.11,3.96,7.92,3.96,75.92,TARP,TARP,19.16,0.00,0.00,0.00,6,0,0,Yes
 Zone Information, CB_STUDENTS_RESTROOMS_2_F3 ZN,0.0,41.30,45.11,7.92,43.21,42.60,9.91,1,1,1,41.30,45.11,40.08,45.11,7.92,11.89,3.96,75.92,TARP,TARP,19.16,0.00,0.00,0.00,6,0,0,Yes
 Zone Information, CB_STUDENTS_RESTROOMS_2_F4 ZN,0.0,45.11,40.08,11.89,43.21,42.60,13.87,1,1,1,41.30,45.11,40.08,45.11,11.89,15.85,3.96,75.92,TARP,TARP,19.16,0.00,0.00,0.00,6,0,0,Yes
 Zone Information, CB_STUDIO_1_F2 ZN,0.0,5.49,37.80,3.96,8.88,45.78,5.94,1,1,1,0.00,18.29,37.80,54.86,3.96,7.92,3.96,1187.18,TARP,TARP,299.61,131.04,90.83,40.20,16,2,0,Yes
 Zone Information, CB_STUDIO_1_F3 ZN,0.0,45.11,54.86,7.92,54.52,45.78,9.91,1,1,1,45.11,63.40,37.80,54.86,7.92,11.89,3.96,1187.18,TARP,TARP,299.61,131.04,90.73,40.31,15,2,0,Yes
 Zone Information, CB_STUDIO_2_F2 ZN,0.0,45.11,37.80,3.96,54.52,45.78,5.94,1,1,1,45.11,63.40,37.80,54.86,3.96,7.92,3.96,1187.18,TARP,TARP,299.61,131.04,90.78,40.26,15,2,0,Yes
 Zone Information, CB_STUDIO_2_F3 ZN,0.0,18.29,40.08,7.92,8.88,45.78,9.91,1,1,1,0.00,18.29,37.80,54.86,7.92,11.89,3.96,1187.18,TARP,TARP,299.61,131.04,90.75,40.29,15,2,0,Yes
 Zone Information, CB_UTILITY_F1 ZN,0.0,35.97,37.80,0.00,34.75,36.12,1.98,1,1,1,33.53,35.97,34.44,37.80,0.00,3.96,3.96,32.39,TARP,TARP,8.18,0.00,0.00,0.00,6,0,0,Yes
 Zone Information, CB_UTILITY_F2 ZN,0.0,35.97,37.80,3.96,34.75,36.12,5.94,1,1,1,33.53,35.97,34.44,37.80,3.96,7.92,3.96,32.39,TARP,TARP,8.18,0.00,0.00,0.00,6,0,0,Yes
 Zone Information, CB_UTILITY_F3 ZN,0.0,35.97,37.80,7.92,34.75,36.12,9.91,1,1,1,33.53,35.97,34.44,37.80,7.92,11.89,3.96,32.39,TARP,TARP,8.18,0.00,0.00,0.00,6,0,0,Yes
 Zone Information, CB_UTILITY_F4 ZN,0.0,35.97,37.80,11.89,34.75,36.12,13.87,1,1,1,33.53,35.97,34.44,37.80,11.89,15.85,3.96,32.39,TARP,TARP,8.18,0.00,0.00,0.00,6,0,0,Yes
! <Zone Internal Gains Nominal>,Zone Name, Floor Area {m2},# Occupants,Area per Occupant {m2/person},Occupant per Area {person/m2},Interior Lighting {W/m2},Electric Load {W/m2},Gas Load {W/m2},Other Load {W/m2},Hot Water Eq {W/m2},Steam Equipment {W/m2},Sum Loads per Area {W/m2},Outdoor Controlled Baseboard Heat
 Zone Internal Gains Nominal, CB_CAFE_STUDY_LOUNGE_F1 ZN,179.77,48.4,3.716,0.269,6.351,76.962,0.000,0.000,0.000,0.000,83.313,No
 Zone Internal Gains Nominal, CB_CLASSROOM_1_F2 ZN,56.44,39.5,1.429,0.700,7.642,10.000,0.000,0.000,0.000,0.000,17.642,No
 Zone Internal Gains Nominal, CB_CLASSROOM_1_F3 ZN,56.44,39.5,1.429,0.700,7.642,10.000,0.000,0.000,0.000,0.000,17.642,No
 Zone Internal Gains Nominal, CB_CLASSROOM_1_F4 ZN,75.25,52.7,1.429,0.700,7.642,10.000,0.000,0.000,0.000,0.000,17.642,No
 Zone Internal Gains Nominal, CB_CLASSROOM_2_F2 ZN,56.44,39.5,1.429,0.700,7.642,10.000,0.000,0.000,0.000,0.000,17.642,No
 Zone Internal Gains Nominal, CB_CLASSROOM_2_F3 ZN,56.44,39.5,1.429,0.700,7.642,10.000,0.000,0.000,0.000,0.000,17.642,No
 Zone Internal Gains Nominal, CB_CLASSROOM_2_F4 ZN,75.25,52.7,1.429,0.700,7.642,10.000,0.000,0.000,0.000,0.000,17.642,No
 Zone Internal Gains Nominal, CB_CLASSROOM_3_F2 ZN,56.44,39.5,1.429,0.700,7.642,10.000,0.000,0.000,0.000,0.000,17.642,No
 Zone Internal Gains Nominal, CB_CLASSROOM_3_F3 ZN,56.44,39.5,1.429,0.700,7.642,10.000,0.000,0.000,0.000,0.000,17.642,No
 Zone Internal Gains Nominal, CB_CLASSROOM_3_F4 ZN,75.25,52.7,1.429,0.700,7.642,10.000,0.000,0.000,0.000,0.000,17.642,No
 Zone Internal Gains Nominal, CB_CLASSROOM_4_F2 ZN,56.44,39.5,1.429,0.700,7.642,10.000,0.000,0.000,0.000,0.000,17.642,No
 Zone Internal Gains Nominal, CB_CLASSROOM_4_F3 ZN,56.44,39.5,1.429,0.700,7.642,10.000,0.000,0.000,0.000,0.000,17.642,No
 Zone Internal Gains Nominal, CB_CLASSROOM_4_F4 ZN,75.25,52.6,1.429,0.700,7.642,10.000,0.000,0.000,0.000,0.000,17.642,No
 Zone Internal Gains Nominal, CB_CLASSROOM_5_F2 ZN,56.44,39.5,1.429,0.700,7.642,10.000,0.000,0.000,0.000,0.000,17.642,No
 Zone Internal Gains Nominal, CB_CLASSROOM_5_F3 ZN,56.44,39.5,1.429,0.700,7.642,10.000,0.000,0.000,0.000,0.000,17.642,No
 Zone Internal Gains Nominal, CB_CLASSROOM_5_F4 ZN,75.25,52.7,1.429,0.700,7.642,10.000,0.000,0.000,0.000,0.000,17.642,No
 Zone Internal Gains Nominal, CB_CLASSROOM_6_F2 ZN,56.44,39.5,1.429,0.700,7.642,10.000,0.000,0.000,0.000,0.000,17.642,No
 Zone Internal Gains Nominal, CB_CLASSROOM_6_F3 ZN,56.44,39.5,1.429,0.700,7.642,10.000,0.000,0.000,0.000,0.000,17.642,No
 Zone Internal Gains Nominal, CB_CLASSROOM_6_F4 ZN,75.25,52.7,1.429,0.700,7.642,10.000,0.000,0.000,0.000,0.000,17.642,No
 Zone Internal Gains Nominal, CB_CLASSROOM_7_F2 ZN,56.44,39.5,1.429,0.700,7.642,10.000,0.000,0.000,0.000,0.000,17.642,No
 Zone Internal Gains Nominal, CB_CLASSROOM_7_F3 ZN,56.44,39.5,1.429,0.700,7.642,10.000,0.000,0.000,0.000,0.000,17.642,No
 Zone Internal Gains Nominal, CB_CLASSROOM_8_F2 ZN,56.44,39.5,1.429,0.700,7.642,10.000,0.000,0.000,0.000,0.000,17.642,No
 Zone Internal Gains Nominal, CB_CLASSROOM_8_F3 ZN,56.44,39.5,1.429,0.700,7.642,10.000,0.000,0.000,0.000,0.000,17.642,No
 Zone Internal Gains Nominal, CB_CONFERENCE_ROOM_F1 ZN,45.99,24.8,1.858,0.538,10.441,10.764,0.000,0.000,0.000,0.000,21.205,No
 Zone Internal Gains Nominal, CB_CONFERENCE_ROOM_F2 ZN,30.66,16.5,1.858,0.538,10.441,10.764,0.000,0.000,0.000,0.000,21.205,No
 Zone Internal Gains Nominal, CB_CONFERENCE_ROOM_F3 ZN,30.66,16.5,1.858,0.538,10.441,10.764,0.000,0.000,0.000,0.000,21.205,No
 Zone Internal Gains Nominal, CB_CONFERENCE_ROOM_F4 ZN,30.66,16.5,1.858,0.538,10.441,10.764,0.000,0.000,0.000,0.000,21.205,No
 Zone Internal Gains Nominal, CB_CORRIDOR_1_F3 ZN,31.59,0.0,N/A,0.000,4.413,3.983,0.000,0.000,0.000,0.000,8.396,No
 Zone Internal Gains Nominal, CB_CORRIDOR_2_F3 ZN,61.32,0.0,N/A,0.000,4.413,3.983,0.000,0.000,0.000,0.000,8.396,No
 Zone Internal Gains Nominal, CB_CORRIDOR_F1 ZN,122.17,0.0,N/A,0.000,4.413,3.983,0.000,0.000,0.000,0.000,8.396,No
 Zone Internal Gains Nominal, CB_CORRIDOR_F2 ZN,92.90,0.0,N/A,0.000,4.413,3.983,0.000,0.000,0.000,0.000,8.396,No
 Zone Internal Gains Nominal, CB_CORRIDOR_F4 ZN,151.43,0.0,N/A,0.000,4.413,3.983,0.000,0.000,0.000,0.000,8.396,No
 Zone Internal Gains Nominal, CB_ENTRANCE_LOBBY_F1 ZN,75.25,8.1,9.290,0.108,0.000,3.983,0.000,0.000,0.000,0.000,3.983,No
 Zone Internal Gains Nominal, CB_FACULTY_OFFICE_1_F2 ZN,12.26,0.7,18.581,5.382E-002,7.965,10.764,0.000,0.000,0.000,0.000,18.729,No
 Zone Internal Gains Nominal, CB_FACULTY_OFFICE_1_F3 ZN,12.26,0.7,18.581,5.382E-002,7.965,10.764,0.000,0.000,0.000,0.000,18.729,No
 Zone Internal Gains Nominal, CB_FACULTY_OFFICE_1_F4 ZN,12.26,0.7,18.581,5.382E-002,7.965,10.764,0.000,0.000,0.000,0.000,18.729,No
 Zone Internal Gains Nominal, CB_FACULTY_OFFICE_2_F2 ZN,12.26,0.7,18.581,5.382E-002,7.965,10.764,0.000,0.000,0.000,0.000,18.729,No
 Zone Internal Gains Nominal, CB_FACULTY_OFFICE_2_F3 ZN,12.26,0.7,18.581,5.382E-002,7.965,10.764,0.000,0.000,0.000,0.000,18.729,No
 Zone Internal Gains Nominal, CB_FACULTY_OFFICE_2_F4 ZN,12.26,0.7,18.581,5.382E-002,7.965,10.764,0.000,0.000,0.000,0.000,18.729,No
 Zone Internal Gains Nominal, CB_FACULTY_OFFICE_3_F2 ZN,12.26,0.7,18.581,5.382E-002,7.965,10.764,0.000,0.000,0.000,0.000,18.729,No
 Zone Internal Gains Nominal, CB_FACULTY_OFFICE_3_F3 ZN,12.26,0.7,18.581,5.382E-002,7.965,10.764,0.000,0.000,0.000,0.000,18.729,No
 Zone Internal Gains Nominal, CB_FACULTY_OFFICE_3_F4 ZN,12.26,0.7,18.581,5.382E-002,7.965,10.764,0.000,0.000,0.000,0.000,18.729,No
 Zone Internal Gains Nominal, CB_FACULTY_OFFICE_4_F2 ZN,12.26,0.7,18.581,5.382E-002,7.965,10.764,0.000,0.000,0.000,0.000,18.729,No
 Zone Internal Gains Nominal, CB_FACULTY_OFFICE_4_F3 ZN,12.26,0.7,18.581,5.382E-002,7.965,10.764,0.000,0.000,0.000,0.000,18.729,No
 Zone Internal Gains Nominal, CB_FACULTY_OFFICE_4_F4 ZN,12.26,0.7,18.581,5.382E-002,7.965,10.764,0.000,0.000,0.000,0.000,18.729,No
 Zone Internal Gains Nominal, CB_FACULTY_OFFICE_5_F2 ZN,12.26,0.7,18.581,5.382E-002,7.965,10.764,0.000,0.000,0.000,0.000,18.729,No
 Zone Internal Gains Nominal, CB_FACULTY_OFFICE_5_F3 ZN,12.26,0.7,18.581,5.382E-002,7.965,10.764,0.000,0.000,0.000,0.000,18.729,No
 Zone Internal Gains Nominal, CB_FACULTY_OFFICE_5_F4 ZN,12.26,0.7,18.581,5.382E-002,7.965,10.764,0.000,0.000,0.000,0.000,18.729,No
 Zone Internal Gains Nominal, CB_FACULTY_OFFICE_6_F2 ZN,12.26,0.7,18.581,5.382E-002,7.965,10.764,0.000,0.000,0.000,0.000,18.729,No
 Zone Internal Gains Nominal, CB_FACULTY_OFFICE_6_F3 ZN,12.26,0.7,18.581,5.382E-002,7.965,10.764,0.000,0.000,0.000,0.000,18.729,No
 Zone Internal Gains Nominal, CB_FACULTY_OFFICE_6_F4 ZN,12.26,0.7,18.581,5.382E-002,7.965,10.764,0.000,0.000,0.000,0.000,18.729,No
 Zone Internal Gains Nominal, CB_FACULTY_OFFICE_7_F2 ZN,12.26,0.7,18.581,5.382E-002,7.965,10.764,0.000,0.000,0.000,0.000,18.729,No
 Zone Internal Gains Nominal, CB_FACULTY_OFFICE_7_F3 ZN,12.26,0.7,18.581,5.382E-002,7.965,10.764,0.000,0.000,0.000,0.000,18.729,No
 Zone Internal Gains Nominal, CB_FACULTY_OFFICE_7_F4 ZN,12.26,0.7,18.581,5.382E-002,7.965,10.764,0.000,0.000,0.000,0.000,18.729,No
 Zone Internal Gains Nominal, CB_FACULTY_OFFICE_8_F2 ZN,12.26,0.7,18.581,5.382E-002,7.965,10.764,0.000,0.000,0.000,0.000,18.729,No
 Zone Internal Gains Nominal, CB_FACULTY_OFFICE_8_F3 ZN,12.26,0.7,18.581,5.382E-002,7.965,10.764,0.000,0.000,0.000,0.000,18.729,No
 Zone Internal Gains Nominal, CB_FACULTY_OFFICE_8_F4 ZN,12.26,0.7,18.581,5.382E-002,7.965,10.764,0.000,0.000,0.000,0.000,18.729,No
 Zone Internal Gains Nominal, CB_FACULTY_RESTROOMS_1_F2 ZN,9.96,0.0,N/A,0.000,6.781,3.983,0.000,0.000,0.000,0.000,10.764,No
 Zone Internal Gains Nominal, CB_FACULTY_RESTROOMS_1_F3 ZN,9.96,0.0,N/A,0.000,6.781,3.983,0.000,0.000,0.000,0.000,10.764,No
 Zone Internal Gains Nominal, CB_FACULTY_RESTROOMS_1_F4 ZN,9.96,0.0,N/A,0.000,6.781,3.983,0.000,0.000,0.000,0.000,10.764,No
 Zone Internal Gains Nominal, CB_FACULTY_RESTROOMS_2_F2 ZN,9.96,0.0,N/A,0.000,6.781,3.983,0.000,0.000,0.000,0.000,10.764,No
 Zone Internal Gains Nominal, CB_FACULTY_RESTROOMS_2_F3 ZN,9.96,0.0,N/A,0.000,6.781,3.983,0.000,0.000,0.000,0.000,10.764,No
 Zone Internal Gains Nominal, CB_FACULTY_RESTROOMS_2_F4 ZN,9.96,0.0,N/A,0.000,6.781,3.983,0.000,0.000,0.000,0.000,10.764,No
 Zone Internal Gains Nominal, CB_LAB_1_F4 ZN,135.17,36.4,3.716,0.269,14.316,43.056,0.000,0.000,0.000,0.000,57.372,No
 Zone Internal Gains Nominal, CB_LAB_2_F4 ZN,135.17,36.4,3.716,0.269,14.316,43.056,0.000,0.000,0.000,0.000,57.372,No
 Zone Internal Gains Nominal, CB_LAB_3_F4 ZN,135.17,36.4,3.716,0.269,14.316,43.056,0.000,0.000,0.000,0.000,57.372,No
 Zone Internal Gains Nominal, CB_LAB_4_F4 ZN,135.17,36.4,3.716,0.269,14.316,43.056,0.000,0.000,0.000,0.000,57.372,No
 Zone Internal Gains Nominal, CB_LECTURE_ROOM_1_F1 ZN,270.35,189.2,1.429,0.700,6.566,10.000,0.000,0.000,0.000,0.000,16.566,No
 Zone Internal Gains Nominal, CB_LECTURE_ROOM_2_F1 ZN,150.50,105.3,1.429,0.700,7.642,10.000,0.000,0.000,0.000,0.000,17.642,No
 Zone Internal Gains Nominal, CB_LIBRARY_MEDIA_CENTER_F1 ZN,270.35,29.1,9.290,0.108,8.934,10.010,0.000,0.000,0.000,0.000,18.944,No
 Zone Internal Gains Nominal, CB_MAIN_STAIRS_F1 ZN,18.58,0.0,N/A,0.000,5.274,0.000,0.000,0.000,0.000,0.000,5.274,No
 Zone Internal Gains Nominal, CB_MAIN_STAIRS_F2 ZN,18.58,0.0,N/A,0.000,5.274,0.000,0.000,0.000,0.000,0.000,5.274,No
 Zone Internal Gains Nominal, CB_MAIN_STAIRS_F3 ZN,18.58,0.0,N/A,0.000,5.274,0.000,0.000,0.000,0.000,0.000,5.274,No
 Zone Internal Gains Nominal, CB_MAIN_STAIRS_F4 ZN,18.58,0.0,N/A,0.000,5.274,0.000,0.000,0.000,0.000,0.000,5.274,No
 Zone Internal Gains Nominal, CB_OFFICES_ENCLOSED_1_F1 ZN,12.26,0.7,18.581,5.382E-002,7.965,10.764,0.000,0.000,0.000,0.000,18.729,No
 Zone Internal Gains Nominal, CB_OFFICES_ENCLOSED_2_F1 ZN,12.26,0.7,18.581,5.382E-002,7.965,10.764,0.000,0.000,0.000,0.000,18.729,No
 Zone Internal Gains Nominal, CB_OFFICES_ENCLOSED_3_F1 ZN,12.26,0.7,18.581,5.382E-002,7.965,10.764,0.000,0.000,0.000,0.000,18.729,No
 Zone Internal Gains Nominal, CB_OFFICES_ENCLOSED_4_F1 ZN,12.26,0.7,18.581,5.382E-002,7.965,10.764,0.000,0.000,0.000,0.000,18.729,No
 Zone Internal Gains Nominal, CB_OFFICES_ENCLOSED_5_F1 ZN,12.26,0.7,18.581,5.382E-002,7.965,10.764,0.000,0.000,0.000,0.000,18.729,No
 Zone Internal Gains Nominal, CB_OFFICES_ENCLOSED_6_F1 ZN,12.26,0.7,18.581,5.382E-002,7.965,10.764,0.000,0.000,0.000,0.000,18.729,No
 Zone Internal Gains Nominal, CB_OFFICES_ENCLOSED_7_F1 ZN,12.26,0.7,18.581,5.382E-002,7.965,10.764,0.000,0.000,0.000,0.000,18.729,No
 Zone Internal Gains Nominal, CB_OFFICES_ENCLOSED_8_F1 ZN,12.26,0.7,18.581,5.382E-002,7.965,10.764,0.000,0.000,0.000,0.000,18.729,No
 Zone Internal Gains Nominal, CB_OFFICES_OPEN_F1 ZN,194.17,10.5,18.581,5.382E-002,7.965,10.764,0.000,0.000,0.000,0.000,18.729,No
 Zone Internal Gains Nominal, CB_OFFICES_OPEN_F2 ZN,209.50,11.3,18.581,5.382E-002,7.965,10.764,0.000,0.000,0.000,0.000,18.729,No
 Zone Internal Gains Nominal, CB_OFFICES_OPEN_F3 ZN,209.50,11.3,18.581,5.382E-002,7.965,10.764,0.000,0.000,0.000,0.000,18.729,No
 Zone Internal Gains Nominal, CB_OFFICES_OPEN_F4 ZN,209.50,11.3,18.581,5.382E-002,7.965,10.764,0.000,0.000,0.000,0.000,18.729,No
 Zone Internal Gains Nominal, CB_PUBLIC_ELEVATORS_F1 ZN,11.89,0.0,N/A,0.000,0.000,2710.875,0.000,0.000,0.000,0.000,2710.875,No
 Zone Internal Gains Nominal, CB_PUBLIC_ELEVATORS_F2 ZN,11.89,0.0,N/A,0.000,0.000,0.000,0.000,0.000,0.000,0.000,0.000,No
 Zone Internal Gains Nominal, CB_PUBLIC_ELEVATORS_F3 ZN,11.89,0.0,N/A,0.000,0.000,0.000,0.000,0.000,0.000,0.000,0.000,No
 Zone Internal Gains Nominal, CB_PUBLIC_ELEVATORS_F4 ZN,11.89,0.0,N/A,0.000,0.000,0.000,0.000,0.000,0.000,0.000,0.000,No
 Zone Internal Gains Nominal, CB_SECONDARY_STAIRS_1_F1 ZN,12.54,0.0,N/A,0.000,5.274,0.000,0.000,0.000,0.000,0.000,5.274,No
 Zone Internal Gains Nominal, CB_SECONDARY_STAIRS_1_F2 ZN,12.54,0.0,N/A,0.000,5.274,0.000,0.000,0.000,0.000,0.000,5.274,No
 Zone Internal Gains Nominal, CB_SECONDARY_STAIRS_1_F3 ZN,12.54,0.0,N/A,0.000,5.274,0.000,0.000,0.000,0.000,0.000,5.274,No
 Zone Internal Gains Nominal, CB_SECONDARY_STAIRS_1_F4 ZN,12.54,0.0,N/A,0.000,5.274,0.000,0.000,0.000,0.000,0.000,5.274,No
 Zone Internal Gains Nominal, CB_SECONDARY_STAIRS_2_F1 ZN,12.54,0.0,N/A,0.000,5.274,0.000,0.000,0.000,0.000,0.000,5.274,No
 Zone Internal Gains Nominal, CB_SECONDARY_STAIRS_2_F2 ZN,12.54,0.0,N/A,0.000,5.274,0.000,0.000,0.000,0.000,0.000,5.274,No
 Zone Internal Gains Nominal, CB_SECONDARY_STAIRS_2_F3 ZN,12.54,0.0,N/A,0.000,5.274,0.000,0.000,0.000,0.000,0.000,5.274,No
 Zone Internal Gains Nominal, CB_SECONDARY_STAIRS_2_F4 ZN,12.54,0.0,N/A,0.000,5.274,0.000,0.000,0.000,0.000,0.000,5.274,No
 Zone Internal Gains Nominal, CB_STAFF_RESTROOMS_1_F1 ZN,9.96,0.0,N/A,0.000,6.781,3.983,0.000,0.000,0.000,0.000,10.764,No
 Zone Internal Gains Nominal, CB_STAFF_RESTROOMS_2_F1 ZN,9.96,0.0,N/A,0.000,6.781,3.983,0.000,0.000,0.000,0.000,10.764,No
 Zone Internal Gains Nominal, CB_STORAGE_F1 ZN,75.25,0.0,N/A,0.000,4.090,0.000,0.000,0.000,0.000,0.000,4.090,No
 Zone Internal Gains Nominal, CB_STUDENTS_RESTROOMS_1_F1 ZN,19.16,0.0,N/A,0.000,6.781,3.983,0.000,0.000,0.000,0.000,10.764,No
 Zone Internal Gains Nominal, CB_STUDENTS_RESTROOMS_1_F2 ZN,19.16,0.0,N/A,0.000,6.781,3.983,0.000,0.000,0.000,0.000,10.764,No
 Zone Internal Gains Nominal, CB_STUDENTS_RESTROOMS_1_F3 ZN,19.16,0.0,N/A,0.000,6.781,3.983,0.000,0.000,0.000,0.000,10.764,No
 Zone Internal Gains Nominal, CB_STUDENTS_RESTROOMS_1_F4 ZN,19.16,0.0,N/A,0.000,6.781,3.983,0.000,0.000,0.000,0.000,10.764,No
 Zone Internal Gains Nominal, CB_STUDENTS_RESTROOMS_2_F1 ZN,19.16,0.0,N/A,0.000,6.781,3.983,0.000,0.000,0.000,0.000,10.764,No
 Zone Internal Gains Nominal, CB_STUDENTS_RESTROOMS_2_F2 ZN,19.16,0.0,N/A,0.000,6.781,3.983,0.000,0.000,0.000,0.000,10.764,No
 Zone Internal Gains Nominal, CB_STUDENTS_RESTROOMS_2_F3 ZN,19.16,0.0,N/A,0.000,6.781,3.983,0.000,0.000,0.000,0.000,10.764,No
 Zone Internal Gains Nominal, CB_STUDENTS_RESTROOMS_2_F4 ZN,19.16,0.0,N/A,0.000,6.781,3.983,0.000,0.000,0.000,0.000,10.764,No
 Zone Internal Gains Nominal, CB_STUDIO_1_F2 ZN,299.61,64.5,4.645,0.215,7.642,10.000,0.000,0.000,0.000,0.000,17.642,No
 Zone Internal Gains Nominal, CB_STUDIO_1_F3 ZN,299.61,64.5,4.645,0.215,7.642,10.000,0.000,0.000,0.000,0.000,17.642,No
 Zone Internal Gains Nominal, CB_STUDIO_2_F2 ZN,299.61,64.5,4.645,0.215,7.642,10.000,0.000,0.000,0.000,0.000,17.642,No
 Zone Internal Gains Nominal, CB_STUDIO_2_F3 ZN,299.61,64.5,4.645,0.215,7.642,10.000,0.000,0.000,0.000,0.000,17.642,No
 Zone Internal Gains Nominal, CB_UTILITY_F1 ZN,8.18,0.0,N/A,0.000,4.628,3.983,0.000,0.000,0.000,0.000,8.611,No
 Zone Internal Gains Nominal, CB_UTILITY_F2 ZN,8.18,0.0,N/A,0.000,4.628,3.983,0.000,0.000,0.000,0.000,8.611,No
 Zone Internal Gains Nominal, CB_UTILITY_F3 ZN,8.18,0.0,N/A,0.000,4.628,3.983,0.000,0.000,0.000,0.000,8.611,No
 Zone Internal Gains Nominal, CB_UTILITY_F4 ZN,8.18,0.0,N/A,0.000,4.628,3.983,0.000,0.000,0.000,0.000,8.611,No
! <People Internal Gains Nominal>,Name,Schedule Name,Zone Name,Zone Floor Area {m2},# Zone Occupants,Number of People {},People/Floor Area {person/m2},Floor Area per person {m2/person},Fraction Radiant,Fraction Convected,Sensible Fraction Calculation,Activity level,ASHRAE 55 Warnings,Carbon Dioxide Generation Rate,Nominal Minimum Number of People,Nominal Maximum Number of People
 People Internal Gains Nominal, CB_CAFE_STUDY_LOUNGE_F1 COLLEGE - LOUNGE PEOPLE,COLLEGE BLDG_CAFE_OCC_SCH,CB_CAFE_STUDY_LOUNGE_F1 ZN,179.77,48.4,48.4,0.269,3.716,0.300,0.700,AutoCalculate,COLLEGE ACTIVITY_SCH,No,3.8200E-008,0,46
 People Internal Gains Nominal, CB_CLASSROOM_1_F4 COLLEGE - CLASSROOM PEOPLE,COLLEGE BLDG_CLASS_OCC_SCH,CB_CLASSROOM_1_F4 ZN,75.25,52.7,52.7,0.700,1.429,0.300,0.700,AutoCalculate,COLLEGE ACTIVITY_SCH,No,3.8200E-008,0,22
 People Internal Gains Nominal, CB_CLASSROOM_2_F4 COLLEGE - CLASSROOM PEOPLE,COLLEGE BLDG_CLASS_OCC_SCH,CB_CLASSROOM_2_F4 ZN,75.25,52.7,52.7,0.700,1.429,0.300,0.700,AutoCalculate,COLLEGE ACTIVITY_SCH,No,3.8200E-008,0,22
 People Internal Gains Nominal, CB_CLASSROOM_3_F4 COLLEGE - CLASSROOM PEOPLE,COLLEGE BLDG_CLASS_OCC_SCH,CB_CLASSROOM_3_F4 ZN,75.25,52.7,52.7,0.700,1.429,0.300,0.700,AutoCalculate,COLLEGE ACTIVITY_SCH,No,3.8200E-008,0,22
 People Internal Gains Nominal, CB_CLASSROOM_5_F4 COLLEGE - CLASSROOM PEOPLE,COLLEGE BLDG_CLASS_OCC_SCH,CB_CLASSROOM_5_F4 ZN,75.25,52.7,52.7,0.700,1.429,0.300,0.700,AutoCalculate,COLLEGE ACTIVITY_SCH,No,3.8200E-008,0,22
 People Internal Gains Nominal, CB_CLASSROOM_6_F4 COLLEGE - CLASSROOM PEOPLE,COLLEGE BLDG_CLASS_OCC_SCH,CB_CLASSROOM_6_F4 ZN,75.25,52.7,52.7,0.700,1.429,0.300,0.700,AutoCalculate,COLLEGE ACTIVITY_SCH,No,3.8200E-008,0,22
 People Internal Gains Nominal, CB_CLASSROOM_7_F2 COLLEGE - CLASSROOM PEOPLE,COLLEGE BLDG_CLASS_OCC_SCH,CB_CLASSROOM_7_F2 ZN,56.44,39.5,39.5,0.700,1.429,0.300,0.700,AutoCalculate,COLLEGE ACTIVITY_SCH,No,3.8200E-008,0,17
 People Internal Gains Nominal, CB_CLASSROOM_6_F2 COLLEGE - CLASSROOM PEOPLE,COLLEGE BLDG_CLASS_OCC_SCH,CB_CLASSROOM_6_F2 ZN,56.44,39.5,39.5,0.700,1.429,0.300,0.700,AutoCalculate,COLLEGE ACTIVITY_SCH,No,3.8200E-008,0,17
 People Internal Gains Nominal, CB_CLASSROOM_5_F2 COLLEGE - CLASSROOM PEOPLE,COLLEGE BLDG_CLASS_OCC_SCH,CB_CLASSROOM_5_F2 ZN,56.44,39.5,39.5,0.700,1.429,0.300,0.700,AutoCalculate,COLLEGE ACTIVITY_SCH,No,3.8200E-008,0,17
 People Internal Gains Nominal, CB_CLASSROOM_4_F3 COLLEGE - CLASSROOM PEOPLE,COLLEGE BLDG_CLASS_OCC_SCH,CB_CLASSROOM_4_F3 ZN,56.44,39.5,39.5,0.700,1.429,0.300,0.700,AutoCalculate,COLLEGE ACTIVITY_SCH,No,3.8200E-008,0,17
 People Internal Gains Nominal, CB_CLASSROOM_3_F3 COLLEGE - CLASSROOM PEOPLE,COLLEGE BLDG_CLASS_OCC_SCH,CB_CLASSROOM_3_F3 ZN,56.44,39.5,39.5,0.700,1.429,0.300,0.700,AutoCalculate,COLLEGE ACTIVITY_SCH,No,3.8200E-008,0,17
 People Internal Gains Nominal, CB_CLASSROOM_5_F3 COLLEGE - CLASSROOM PEOPLE,COLLEGE BLDG_CLASS_OCC_SCH,CB_CLASSROOM_5_F3 ZN,56.44,39.5,39.5,0.700,1.429,0.300,0.700,AutoCalculate,COLLEGE ACTIVITY_SCH,No,3.8200E-008,0,17
 People Internal Gains Nominal, CB_CLASSROOM_1_F3 COLLEGE - CLASSROOM PEOPLE,COLLEGE BLDG_CLASS_OCC_SCH,CB_CLASSROOM_1_F3 ZN,56.44,39.5,39.5,0.700,1.429,0.300,0.700,AutoCalculate,COLLEGE ACTIVITY_SCH,No,3.8200E-008,0,17
 People Internal Gains Nominal, CB_CLASSROOM_2_F3 COLLEGE - CLASSROOM PEOPLE,COLLEGE BLDG_CLASS_OCC_SCH,CB_CLASSROOM_2_F3 ZN,56.44,39.5,39.5,0.700,1.429,0.300,0.700,AutoCalculate,COLLEGE ACTIVITY_SCH,No,3.8200E-008,0,17
 People Internal Gains Nominal, CB_CLASSROOM_8_F2 COLLEGE - CLASSROOM PEOPLE,COLLEGE BLDG_CLASS_OCC_SCH,CB_CLASSROOM_8_F2 ZN,56.44,39.5,39.5,0.700,1.429,0.300,0.700,AutoCalculate,COLLEGE ACTIVITY_SCH,No,3.8200E-008,0,17
 People Internal Gains Nominal, CB_CLASSROOM_6_F3 COLLEGE - CLASSROOM PEOPLE,COLLEGE BLDG_CLASS_OCC_SCH,CB_CLASSROOM_6_F3 ZN,56.44,39.5,39.5,0.700,1.429,0.300,0.700,AutoCalculate,COLLEGE ACTIVITY_SCH,No,3.8200E-008,0,17
 People Internal Gains Nominal, CB_CLASSROOM_7_F3 COLLEGE - CLASSROOM PEOPLE,COLLEGE BLDG_CLASS_OCC_SCH,CB_CLASSROOM_7_F3 ZN,56.44,39.5,39.5,0.700,1.429,0.300,0.700,AutoCalculate,COLLEGE ACTIVITY_SCH,No,3.8200E-008,0,17
 People Internal Gains Nominal, CB_CLASSROOM_8_F3 COLLEGE - CLASSROOM PEOPLE,COLLEGE BLDG_CLASS_OCC_SCH,CB_CLASSROOM_8_F3 ZN,56.44,39.5,39.5,0.700,1.429,0.300,0.700,AutoCalculate,COLLEGE ACTIVITY_SCH,No,3.8200E-008,0,17
 People Internal Gains Nominal, CB_CLASSROOM_4_F4 COLLEGE - CLASSROOM PEOPLE,COLLEGE BLDG_CLASS_OCC_SCH,CB_CLASSROOM_4_F4 ZN,75.25,52.6,52.6,0.700,1.429,0.300,0.700,AutoCalculate,COLLEGE ACTIVITY_SCH,No,3.8200E-008,0,22
 People Internal Gains Nominal, CB_CLASSROOM_4_F2 COLLEGE - CLASSROOM PEOPLE,COLLEGE BLDG_CLASS_OCC_SCH,CB_CLASSROOM_4_F2 ZN,56.44,39.5,39.5,0.700,1.429,0.300,0.700,AutoCalculate,COLLEGE ACTIVITY_SCH,No,3.8200E-008,0,17
 People Internal Gains Nominal, CB_LECTURE_ROOM_2_F1 COLLEGE - CLASSROOM PEOPLE,COLLEGE BLDG_CLASS_OCC_SCH,CB_LECTURE_ROOM_2_F1 ZN,150.50,105.3,105.3,0.700,1.429,0.300,0.700,AutoCalculate,COLLEGE ACTIVITY_SCH,No,3.8200E-008,0,44
 People Internal Gains Nominal, CB_CLASSROOM_2_F2 COLLEGE - CLASSROOM PEOPLE,COLLEGE BLDG_CLASS_OCC_SCH,CB_CLASSROOM_2_F2 ZN,56.44,39.5,39.5,0.700,1.429,0.300,0.700,AutoCalculate,COLLEGE ACTIVITY_SCH,No,3.8200E-008,0,17
 People Internal Gains Nominal, CB_CLASSROOM_1_F2 COLLEGE - CLASSROOM PEOPLE,COLLEGE BLDG_CLASS_OCC_SCH,CB_CLASSROOM_1_F2 ZN,56.44,39.5,39.5,0.700,1.429,0.300,0.700,AutoCalculate,COLLEGE ACTIVITY_SCH,No,3.8200E-008,0,17
 People Internal Gains Nominal, CB_CLASSROOM_3_F2 COLLEGE - CLASSROOM PEOPLE,COLLEGE BLDG_CLASS_OCC_SCH,CB_CLASSROOM_3_F2 ZN,56.44,39.5,39.5,0.700,1.429,0.300,0.700,AutoCalculate,COLLEGE ACTIVITY_SCH,No,3.8200E-008,0,17
 People Internal Gains Nominal, CB_CONFERENCE_ROOM_F4 COLLEGE - CONFERENCE PEOPLE,COLLEGE BLDG_OCC_SCH,CB_CONFERENCE_ROOM_F4 ZN,30.66,16.5,16.5,0.538,1.858,0.300,0.700,AutoCalculate,COLLEGE ACTIVITY_SCH,No,3.8200E-008,0,16
 People Internal Gains Nominal, CB_CONFERENCE_ROOM_F3 COLLEGE - CONFERENCE PEOPLE,COLLEGE BLDG_OCC_SCH,CB_CONFERENCE_ROOM_F3 ZN,30.66,16.5,16.5,0.538,1.858,0.300,0.700,AutoCalculate,COLLEGE ACTIVITY_SCH,No,3.8200E-008,0,16
 People Internal Gains Nominal, CB_CONFERENCE_ROOM_F1 COLLEGE - CONFERENCE PEOPLE,COLLEGE BLDG_OCC_SCH,CB_CONFERENCE_ROOM_F1 ZN,45.99,24.8,24.8,0.538,1.858,0.300,0.700,AutoCalculate,COLLEGE ACTIVITY_SCH,No,3.8200E-008,0,24
 People Internal Gains Nominal, CB_CONFERENCE_ROOM_F2 COLLEGE - CONFERENCE PEOPLE,COLLEGE BLDG_OCC_SCH,CB_CONFERENCE_ROOM_F2 ZN,30.66,16.5,16.5,0.538,1.858,0.300,0.700,AutoCalculate,COLLEGE ACTIVITY_SCH,No,3.8200E-008,0,16
 People Internal Gains Nominal, CB_ENTRANCE_LOBBY_F1 COLLEGE - ENTRANCE LOBBY PEOPLE,COLLEGE BLDG_OCC_SCH,CB_ENTRANCE_LOBBY_F1 ZN,75.25,8.1,8.1,0.108,9.290,0.300,0.700,AutoCalculate,COLLEGE ACTIVITY_SCH,No,3.8200E-008,0,8
 People Internal Gains Nominal, CB_OFFICES_ENCLOSED_8_F1 COLLEGE - OFFICE PEOPLE,COLLEGE BLDG_OCC_SCH_OFFICES,CB_OFFICES_ENCLOSED_8_F1 ZN,12.26,0.7,0.7,5.382E-002,18.581,0.300,0.700,AutoCalculate,COLLEGE ACTIVITY_SCH,No,3.8200E-008,0,1
 People Internal Gains Nominal, CB_OFFICES_ENCLOSED_7_F1 COLLEGE - OFFICE PEOPLE,COLLEGE BLDG_OCC_SCH_OFFICES,CB_OFFICES_ENCLOSED_7_F1 ZN,12.26,0.7,0.7,5.382E-002,18.581,0.300,0.700,AutoCalculate,COLLEGE ACTIVITY_SCH,No,3.8200E-008,0,1
 People Internal Gains Nominal, CB_OFFICES_ENCLOSED_5_F1 COLLEGE - OFFICE PEOPLE,COLLEGE BLDG_OCC_SCH_OFFICES,CB_OFFICES_ENCLOSED_5_F1 ZN,12.26,0.7,0.7,5.382E-002,18.581,0.300,0.700,AutoCalculate,COLLEGE ACTIVITY_SCH,No,3.8200E-008,0,1
 People Internal Gains Nominal, CB_OFFICES_ENCLOSED_4_F1 COLLEGE - OFFICE PEOPLE,COLLEGE BLDG_OCC_SCH_OFFICES,CB_OFFICES_ENCLOSED_4_F1 ZN,12.26,0.7,0.7,5.382E-002,18.581,0.300,0.700,AutoCalculate,COLLEGE ACTIVITY_SCH,No,3.8200E-008,0,1
 People Internal Gains Nominal, CB_OFFICES_ENCLOSED_6_F1 COLLEGE - OFFICE PEOPLE,COLLEGE BLDG_OCC_SCH_OFFICES,CB_OFFICES_ENCLOSED_6_F1 ZN,12.26,0.7,0.7,5.382E-002,18.581,0.300,0.700,AutoCalculate,COLLEGE ACTIVITY_SCH,No,3.8200E-008,0,1
 People Internal Gains Nominal, CB_OFFICES_OPEN_F4 COLLEGE - OFFICE PEOPLE,COLLEGE BLDG_OCC_SCH_OFFICES,CB_OFFICES_OPEN_F4 ZN,209.50,11.3,11.3,5.382E-002,18.581,0.300,0.700,AutoCalculate,COLLEGE ACTIVITY_SCH,No,3.8200E-008,0,11
 People Internal Gains Nominal, CB_OFFICES_OPEN_F1 COLLEGE - OFFICE PEOPLE,COLLEGE BLDG_OCC_SCH_OFFICES,CB_OFFICES_OPEN_F1 ZN,194.17,10.5,10.5,5.382E-002,18.581,0.300,0.700,AutoCalculate,COLLEGE ACTIVITY_SCH,No,3.8200E-008,0,10
 People Internal Gains Nominal, CB_FACULTY_OFFICE_6_F4 COLLEGE - OFFICE PEOPLE,COLLEGE BLDG_OCC_SCH_OFFICES,CB_FACULTY_OFFICE_6_F4 ZN,12.26,0.7,0.7,5.382E-002,18.581,0.300,0.700,AutoCalculate,COLLEGE ACTIVITY_SCH,No,3.8200E-008,0,1
 People Internal Gains Nominal, CB_FACULTY_OFFICE_5_F4 COLLEGE - OFFICE PEOPLE,COLLEGE BLDG_OCC_SCH_OFFICES,CB_FACULTY_OFFICE_5_F4 ZN,12.26,0.7,0.7,5.382E-002,18.581,0.300,0.700,AutoCalculate,COLLEGE ACTIVITY_SCH,No,3.8200E-008,0,1
 People Internal Gains Nominal, CB_FACULTY_OFFICE_4_F4 COLLEGE - OFFICE PEOPLE,COLLEGE BLDG_OCC_SCH_OFFICES,CB_FACULTY_OFFICE_4_F4 ZN,12.26,0.7,0.7,5.382E-002,18.581,0.300,0.700,AutoCalculate,COLLEGE ACTIVITY_SCH,No,3.8200E-008,0,1
 People Internal Gains Nominal, CB_FACULTY_OFFICE_3_F4 COLLEGE - OFFICE PEOPLE,COLLEGE BLDG_OCC_SCH_OFFICES,CB_FACULTY_OFFICE_3_F4 ZN,12.26,0.7,0.7,5.382E-002,18.581,0.300,0.700,AutoCalculate,COLLEGE ACTIVITY_SCH,No,3.8200E-008,0,1
 People Internal Gains Nominal, CB_FACULTY_OFFICE_2_F4 COLLEGE - OFFICE PEOPLE,COLLEGE BLDG_OCC_SCH_OFFICES,CB_FACULTY_OFFICE_2_F4 ZN,12.26,0.7,0.7,5.382E-002,18.581,0.300,0.700,AutoCalculate,COLLEGE ACTIVITY_SCH,No,3.8200E-008,0,1
 People Internal Gains Nominal, CB_OFFICES_ENCLOSED_1_F1 COLLEGE - OFFICE PEOPLE,COLLEGE BLDG_OCC_SCH_OFFICES,CB_OFFICES_ENCLOSED_1_F1 ZN,12.26,0.7,0.7,5.382E-002,18.581,0.300,0.700,AutoCalculate,COLLEGE ACTIVITY_SCH,No,3.8200E-008,0,1
 People Internal Gains Nominal, CB_FACULTY_OFFICE_1_F4 COLLEGE - OFFICE PEOPLE,COLLEGE BLDG_OCC_SCH_OFFICES,CB_FACULTY_OFFICE_1_F4 ZN,12.26,0.7,0.7,5.382E-002,18.581,0.300,0.700,AutoCalculate,COLLEGE ACTIVITY_SCH,No,3.8200E-008,0,1
 People Internal Gains Nominal, CB_FACULTY_OFFICE_1_F3 COLLEGE - OFFICE PEOPLE,COLLEGE BLDG_OCC_SCH_OFFICES,CB_FACULTY_OFFICE_1_F3 ZN,12.26,0.7,0.7,5.382E-002,18.581,0.300,0.700,AutoCalculate,COLLEGE ACTIVITY_SCH,No,3.8200E-008,0,1
 People Internal Gains Nominal, CB_FACULTY_OFFICE_3_F2 COLLEGE - OFFICE PEOPLE,COLLEGE BLDG_OCC_SCH_OFFICES,CB_FACULTY_OFFICE_3_F2 ZN,12.26,0.7,0.7,5.382E-002,18.581,0.300,0.700,AutoCalculate,COLLEGE ACTIVITY_SCH,No,3.8200E-008,0,1
 People Internal Gains Nominal, CB_FACULTY_OFFICE_5_F3 COLLEGE - OFFICE PEOPLE,COLLEGE BLDG_OCC_SCH_OFFICES,CB_FACULTY_OFFICE_5_F3 ZN,12.26,0.7,0.7,5.382E-002,18.581,0.300,0.700,AutoCalculate,COLLEGE ACTIVITY_SCH,No,3.8200E-008,0,1
 People Internal Gains Nominal, CB_FACULTY_OFFICE_4_F3 COLLEGE - OFFICE PEOPLE,COLLEGE BLDG_OCC_SCH_OFFICES,CB_FACULTY_OFFICE_4_F3 ZN,12.26,0.7,0.7,5.382E-002,18.581,0.300,0.700,AutoCalculate,COLLEGE ACTIVITY_SCH,No,3.8200E-008,0,1
 People Internal Gains Nominal, CB_FACULTY_OFFICE_2_F3 COLLEGE - OFFICE PEOPLE,COLLEGE BLDG_OCC_SCH_OFFICES,CB_FACULTY_OFFICE_2_F3 ZN,12.26,0.7,0.7,5.382E-002,18.581,0.300,0.700,AutoCalculate,COLLEGE ACTIVITY_SCH,No,3.8200E-008,0,1
 People Internal Gains Nominal, CB_OFFICES_ENCLOSED_2_F1 COLLEGE - OFFICE PEOPLE,COLLEGE BLDG_OCC_SCH_OFFICES,CB_OFFICES_ENCLOSED_2_F1 ZN,12.26,0.7,0.7,5.382E-002,18.581,0.300,0.700,AutoCalculate,COLLEGE ACTIVITY_SCH,No,3.8200E-008,0,1
 People Internal Gains Nominal, CB_FACULTY_OFFICE_3_F3 COLLEGE - OFFICE PEOPLE,COLLEGE BLDG_OCC_SCH_OFFICES,CB_FACULTY_OFFICE_3_F3 ZN,12.26,0.7,0.7,5.382E-002,18.581,0.300,0.700,AutoCalculate,COLLEGE ACTIVITY_SCH,No,3.8200E-008,0,1
 People Internal Gains Nominal, CB_FACULTY_OFFICE_8_F4 COLLEGE - OFFICE PEOPLE,COLLEGE BLDG_OCC_SCH_OFFICES,CB_FACULTY_OFFICE_8_F4 ZN,12.26,0.7,0.7,5.382E-002,18.581,0.300,0.700,AutoCalculate,COLLEGE ACTIVITY_SCH,No,3.8200E-008,0,1
 People Internal Gains Nominal, CB_FACULTY_OFFICE_8_F3 COLLEGE - OFFICE PEOPLE,COLLEGE BLDG_OCC_SCH_OFFICES,CB_FACULTY_OFFICE_8_F3 ZN,12.26,0.7,0.7,5.382E-002,18.581,0.300,0.700,AutoCalculate,COLLEGE ACTIVITY_SCH,No,3.8200E-008,0,1
 People Internal Gains Nominal, CB_FACULTY_OFFICE_7_F3 COLLEGE - OFFICE PEOPLE,COLLEGE BLDG_OCC_SCH_OFFICES,CB_FACULTY_OFFICE_7_F3 ZN,12.26,0.7,0.7,5.382E-002,18.581,0.300,0.700,AutoCalculate,COLLEGE ACTIVITY_SCH,No,3.8200E-008,0,1
 People Internal Gains Nominal, CB_OFFICES_ENCLOSED_3_F1 COLLEGE - OFFICE PEOPLE,COLLEGE BLDG_OCC_SCH_OFFICES,CB_OFFICES_ENCLOSED_3_F1 ZN,12.26,0.7,0.7,5.382E-002,18.581,0.300,0.700,AutoCalculate,COLLEGE ACTIVITY_SCH,No,3.8200E-008,0,1
 People Internal Gains Nominal, CB_FACULTY_OFFICE_6_F2 COLLEGE - OFFICE PEOPLE,COLLEGE BLDG_OCC_SCH_OFFICES,CB_FACULTY_OFFICE_6_F2 ZN,12.26,0.7,0.7,5.382E-002,18.581,0.300,0.700,AutoCalculate,COLLEGE ACTIVITY_SCH,No,3.8200E-008,0,1
 People Internal Gains Nominal, CB_FACULTY_OFFICE_6_F3 COLLEGE - OFFICE PEOPLE,COLLEGE BLDG_OCC_SCH_OFFICES,CB_FACULTY_OFFICE_6_F3 ZN,12.26,0.7,0.7,5.382E-002,18.581,0.300,0.700,AutoCalculate,COLLEGE ACTIVITY_SCH,No,3.8200E-008,0,1
 People Internal Gains Nominal, CB_FACULTY_OFFICE_7_F2 COLLEGE - OFFICE PEOPLE,COLLEGE BLDG_OCC_SCH_OFFICES,CB_FACULTY_OFFICE_7_F2 ZN,12.26,0.7,0.7,5.382E-002,18.581,0.300,0.700,AutoCalculate,COLLEGE ACTIVITY_SCH,No,3.8200E-008,0,1
 People Internal Gains Nominal, CB_FACULTY_OFFICE_7_F4 COLLEGE - OFFICE PEOPLE,COLLEGE BLDG_OCC_SCH_OFFICES,CB_FACULTY_OFFICE_7_F4 ZN,12.26,0.7,0.7,5.382E-002,18.581,0.300,0.700,AutoCalculate,COLLEGE ACTIVITY_SCH,No,3.8200E-008,0,1
 People Internal Gains Nominal, CB_FACULTY_OFFICE_8_F2 COLLEGE - OFFICE PEOPLE,COLLEGE BLDG_OCC_SCH_OFFICES,CB_FACULTY_OFFICE_8_F2 ZN,12.26,0.7,0.7,5.382E-002,18.581,0.300,0.700,AutoCalculate,COLLEGE ACTIVITY_SCH,No,3.8200E-008,0,1
 People Internal Gains Nominal, CB_FACULTY_OFFICE_2_F2 COLLEGE - OFFICE PEOPLE,COLLEGE BLDG_OCC_SCH_OFFICES,CB_FACULTY_OFFICE_2_F2 ZN,12.26,0.7,0.7,5.382E-002,18.581,0.300,0.700,AutoCalculate,COLLEGE ACTIVITY_SCH,No,3.8200E-008,0,1
 People Internal Gains Nominal, CB_OFFICES_OPEN_F3 COLLEGE - OFFICE PEOPLE,COLLEGE BLDG_OCC_SCH_OFFICES,CB_OFFICES_OPEN_F3 ZN,209.50,11.3,11.3,5.382E-002,18.581,0.300,0.700,AutoCalculate,COLLEGE ACTIVITY_SCH,No,3.8200E-008,0,11
 People Internal Gains Nominal, CB_FACULTY_OFFICE_4_F2 COLLEGE - OFFICE PEOPLE,COLLEGE BLDG_OCC_SCH_OFFICES,CB_FACULTY_OFFICE_4_F2 ZN,12.26,0.7,0.7,5.382E-002,18.581,0.300,0.700,AutoCalculate,COLLEGE ACTIVITY_SCH,No,3.8200E-008,0,1
 People Internal Gains Nominal, CB_OFFICES_OPEN_F2 COLLEGE - OFFICE PEOPLE,COLLEGE BLDG_OCC_SCH_OFFICES,CB_OFFICES_OPEN_F2 ZN,209.50,11.3,11.3,5.382E-002,18.581,0.300,0.700,AutoCalculate,COLLEGE ACTIVITY_SCH,No,3.8200E-008,0,11
 People Internal Gains Nominal, CB_FACULTY_OFFICE_5_F2 COLLEGE - OFFICE PEOPLE,COLLEGE BLDG_OCC_SCH_OFFICES,CB_FACULTY_OFFICE_5_F2 ZN,12.26,0.7,0.7,5.382E-002,18.581,0.300,0.700,AutoCalculate,COLLEGE ACTIVITY_SCH,No,3.8200E-008,0,1
 People Internal Gains Nominal, CB_FACULTY_OFFICE_1_F2 COLLEGE - OFFICE PEOPLE,COLLEGE BLDG_OCC_SCH_OFFICES,CB_FACULTY_OFFICE_1_F2 ZN,12.26,0.7,0.7,5.382E-002,18.581,0.300,0.700,AutoCalculate,COLLEGE ACTIVITY_SCH,No,3.8200E-008,0,1
 People Internal Gains Nominal, CB_LAB_3_F4 COLLEGE - LABORATORY PEOPLE,COLLEGE BLDG_LAB_OCC_SCH,CB_LAB_3_F4 ZN,135.17,36.4,36.4,0.269,3.716,0.300,0.700,AutoCalculate,COLLEGE ACTIVITY_SCH,No,3.8200E-008,0,9
 People Internal Gains Nominal, CB_LAB_4_F4 COLLEGE - LABORATORY PEOPLE,COLLEGE BLDG_LAB_OCC_SCH,CB_LAB_4_F4 ZN,135.17,36.4,36.4,0.269,3.716,0.300,0.700,AutoCalculate,COLLEGE ACTIVITY_SCH,No,3.8200E-008,0,9
 People Internal Gains Nominal, CB_LAB_1_F4 COLLEGE - LABORATORY PEOPLE,COLLEGE BLDG_LAB_OCC_SCH,CB_LAB_1_F4 ZN,135.17,36.4,36.4,0.269,3.716,0.300,0.700,AutoCalculate,COLLEGE ACTIVITY_SCH,No,3.8200E-008,0,9
 People Internal Gains Nominal, CB_LAB_2_F4 COLLEGE - LABORATORY PEOPLE,COLLEGE BLDG_LAB_OCC_SCH,CB_LAB_2_F4 ZN,135.17,36.4,36.4,0.269,3.716,0.300,0.700,AutoCalculate,COLLEGE ACTIVITY_SCH,No,3.8200E-008,0,9
 People Internal Gains Nominal, CB_LECTURE_ROOM_1_F1 COLLEGE - LECTURE HALL PEOPLE,COLLEGE BLDG_LECTURE_OCC_SCH,CB_LECTURE_ROOM_1_F1 ZN,270.35,189.2,189.2,0.700,1.429,0.300,0.700,AutoCalculate,COLLEGE ACTIVITY_SCH,No,3.8200E-008,0,76
 People Internal Gains Nominal, CB_LIBRARY_MEDIA_CENTER_F1 COLLEGE - MEDIA CENTER PEOPLE,COLLEGE BLDG_LECTURE_OCC_SCH,CB_LIBRARY_MEDIA_CENTER_F1 ZN,270.35,29.1,29.1,0.108,9.290,0.300,0.700,AutoCalculate,COLLEGE ACTIVITY_SCH,No,3.8200E-008,0,12
 People Internal Gains Nominal, CB_STUDIO_1_F2 COLLEGE - ART CLASSROOM PEOPLE,COLLEGE BLDG_STUDIO_OCC_SCH,CB_STUDIO_1_F2 ZN,299.61,64.5,64.5,0.215,4.645,0.300,0.700,AutoCalculate,COLLEGE ACTIVITY_SCH,No,3.8200E-008,0,24
 People Internal Gains Nominal, CB_STUDIO_1_F3 COLLEGE - ART CLASSROOM PEOPLE,COLLEGE BLDG_STUDIO_OCC_SCH,CB_STUDIO_1_F3 ZN,299.61,64.5,64.5,0.215,4.645,0.300,0.700,AutoCalculate,COLLEGE ACTIVITY_SCH,No,3.8200E-008,0,24
 People Internal Gains Nominal, CB_STUDIO_2_F2 COLLEGE - ART CLASSROOM PEOPLE,COLLEGE BLDG_STUDIO_OCC_SCH,CB_STUDIO_2_F2 ZN,299.61,64.5,64.5,0.215,4.645,0.300,0.700,AutoCalculate,COLLEGE ACTIVITY_SCH,No,3.8200E-008,0,24
 People Internal Gains Nominal, CB_STUDIO_2_F3 COLLEGE - ART CLASSROOM PEOPLE,COLLEGE BLDG_STUDIO_OCC_SCH,CB_STUDIO_2_F3 ZN,299.61,64.5,64.5,0.215,4.645,0.300,0.700,AutoCalculate,COLLEGE ACTIVITY_SCH,No,3.8200E-008,0,24
! <Lights Internal Gains Nominal>,Name,Schedule Name,Zone Name,Zone Floor Area {m2},# Zone Occupants,Lighting Level {W},Lights/Floor Area {W/m2},Lights per person {W/person},Fraction Return Air,Fraction Radiant,Fraction Short Wave,Fraction Convected,Fraction Replaceable,End-Use Category,Nominal Minimum Lighting Level {W},Nominal Maximum Lighting Level {W}
 Lights Internal Gains Nominal, CB_CAFE_STUDY_LOUNGE_F1 COLLEGE - LOUNGE LIGHTS,COLLEGE BLDG_LIGHT_SCH,CB_CAFE_STUDY_LOUNGE_F1 ZN,179.77,48.4,1141.650,6.351,23.600,0.000,0.000,0.000,1.000,0.000,General,202.415,1027.485
 Lights Internal Gains Nominal, CB_CLASSROOM_1_F4 COLLEGE - CLASSROOM LIGHTS,COLLEGE BLDG_LIGHT_SCH,CB_CLASSROOM_1_F4 ZN,75.25,52.7,575.100,7.642,10.923,0.000,0.000,0.000,1.000,0.000,General,101.965,517.590
 Lights Internal Gains Nominal, CB_CLASSROOM_2_F4 COLLEGE - CLASSROOM LIGHTS,COLLEGE BLDG_LIGHT_SCH,CB_CLASSROOM_2_F4 ZN,75.25,52.7,575.100,7.642,10.923,0.000,0.000,0.000,1.000,0.000,General,101.965,517.590
 Lights Internal Gains Nominal, CB_CLASSROOM_3_F4 COLLEGE - CLASSROOM LIGHTS,COLLEGE BLDG_LIGHT_SCH,CB_CLASSROOM_3_F4 ZN,75.25,52.7,575.100,7.642,10.923,0.000,0.000,0.000,1.000,0.000,General,101.965,517.590
 Lights Internal Gains Nominal, CB_CLASSROOM_5_F4 COLLEGE - CLASSROOM LIGHTS,COLLEGE BLDG_LIGHT_SCH,CB_CLASSROOM_5_F4 ZN,75.25,52.7,575.100,7.642,10.923,0.000,0.000,0.000,1.000,0.000,General,101.965,517.590
 Lights Internal Gains Nominal, CB_CLASSROOM_6_F4 COLLEGE - CLASSROOM LIGHTS,COLLEGE BLDG_LIGHT_SCH,CB_CLASSROOM_6_F4 ZN,75.25,52.7,575.100,7.642,10.923,0.000,0.000,0.000,1.000,0.000,General,101.965,517.590
 Lights Internal Gains Nominal, CB_CLASSROOM_7_F2 COLLEGE - CLASSROOM LIGHTS,COLLEGE BLDG_LIGHT_SCH,CB_CLASSROOM_7_F2 ZN,56.44,39.5,431.325,7.642,10.923,0.000,0.000,0.000,1.000,0.000,General,76.474,388.192
 Lights Internal Gains Nominal, CB_CLASSROOM_6_F2 COLLEGE - CLASSROOM LIGHTS,COLLEGE BLDG_LIGHT_SCH,CB_CLASSROOM_6_F2 ZN,56.44,39.5,431.325,7.642,10.923,0.000,0.000,0.000,1.000,0.000,General,76.474,388.192
 Lights Internal Gains Nominal, CB_CLASSROOM_5_F2 COLLEGE - CLASSROOM LIGHTS,COLLEGE BLDG_LIGHT_SCH,CB_CLASSROOM_5_F2 ZN,56.44,39.5,431.325,7.642,10.923,0.000,0.000,0.000,1.000,0.000,General,76.474,388.193
 Lights Internal Gains Nominal, CB_CLASSROOM_4_F3 COLLEGE - CLASSROOM LIGHTS,COLLEGE BLDG_LIGHT_SCH,CB_CLASSROOM_4_F3 ZN,56.44,39.5,431.325,7.642,10.923,0.000,0.000,0.000,1.000,0.000,General,76.474,388.192
 Lights Internal Gains Nominal, CB_CLASSROOM_3_F3 COLLEGE - CLASSROOM LIGHTS,COLLEGE BLDG_LIGHT_SCH,CB_CLASSROOM_3_F3 ZN,56.44,39.5,431.325,7.642,10.923,0.000,0.000,0.000,1.000,0.000,General,76.474,388.193
 Lights Internal Gains Nominal, CB_CLASSROOM_5_F3 COLLEGE - CLASSROOM LIGHTS,COLLEGE BLDG_LIGHT_SCH,CB_CLASSROOM_5_F3 ZN,56.44,39.5,431.325,7.642,10.923,0.000,0.000,0.000,1.000,0.000,General,76.474,388.193
 Lights Internal Gains Nominal, CB_CLASSROOM_1_F3 COLLEGE - CLASSROOM LIGHTS,COLLEGE BLDG_LIGHT_SCH,CB_CLASSROOM_1_F3 ZN,56.44,39.5,431.325,7.642,10.923,0.000,0.000,0.000,1.000,0.000,General,76.474,388.192
 Lights Internal Gains Nominal, CB_CLASSROOM_2_F3 COLLEGE - CLASSROOM LIGHTS,COLLEGE BLDG_LIGHT_SCH,CB_CLASSROOM_2_F3 ZN,56.44,39.5,431.325,7.642,10.923,0.000,0.000,0.000,1.000,0.000,General,76.474,388.192
 Lights Internal Gains Nominal, CB_CLASSROOM_8_F2 COLLEGE - CLASSROOM LIGHTS,COLLEGE BLDG_LIGHT_SCH,CB_CLASSROOM_8_F2 ZN,56.44,39.5,431.325,7.642,10.923,0.000,0.000,0.000,1.000,0.000,General,76.474,388.192
 Lights Internal Gains Nominal, CB_CLASSROOM_6_F3 COLLEGE - CLASSROOM LIGHTS,COLLEGE BLDG_LIGHT_SCH,CB_CLASSROOM_6_F3 ZN,56.44,39.5,431.325,7.642,10.923,0.000,0.000,0.000,1.000,0.000,General,76.474,388.193
 Lights Internal Gains Nominal, CB_CLASSROOM_7_F3 COLLEGE - CLASSROOM LIGHTS,COLLEGE BLDG_LIGHT_SCH,CB_CLASSROOM_7_F3 ZN,56.44,39.5,431.325,7.642,10.923,0.000,0.000,0.000,1.000,0.000,General,76.474,388.193
 Lights Internal Gains Nominal, CB_CLASSROOM_8_F3 COLLEGE - CLASSROOM LIGHTS,COLLEGE BLDG_LIGHT_SCH,CB_CLASSROOM_8_F3 ZN,56.44,39.5,431.325,7.642,10.923,0.000,0.000,0.000,1.000,0.000,General,76.474,388.193
 Lights Internal Gains Nominal, CB_CLASSROOM_4_F4 COLLEGE - CLASSROOM LIGHTS,COLLEGE BLDG_LIGHT_SCH,CB_CLASSROOM_4_F4 ZN,75.25,52.6,575.100,7.642,10.923,0.000,0.000,0.000,1.000,0.000,General,101.965,517.590
 Lights Internal Gains Nominal, CB_CLASSROOM_4_F2 COLLEGE - CLASSROOM LIGHTS,COLLEGE BLDG_LIGHT_SCH,CB_CLASSROOM_4_F2 ZN,56.44,39.5,431.325,7.642,10.923,0.000,0.000,0.000,1.000,0.000,General,76.474,388.192
 Lights Internal Gains Nominal, CB_LECTURE_ROOM_2_F1 COLLEGE - CLASSROOM LIGHTS,COLLEGE BLDG_LIGHT_SCH,CB_LECTURE_ROOM_2_F1 ZN,150.50,105.3,1150.200,7.642,10.923,0.000,0.000,0.000,1.000,0.000,General,203.930,1035.180
 Lights Internal Gains Nominal, CB_CLASSROOM_2_F2 COLLEGE - CLASSROOM LIGHTS,COLLEGE BLDG_LIGHT_SCH,CB_CLASSROOM_2_F2 ZN,56.44,39.5,431.325,7.642,10.923,0.000,0.000,0.000,1.000,0.000,General,76.474,388.192
 Lights Internal Gains Nominal, CB_CLASSROOM_1_F2 COLLEGE - CLASSROOM LIGHTS,COLLEGE BLDG_LIGHT_SCH,CB_CLASSROOM_1_F2 ZN,56.44,39.5,431.325,7.642,10.923,0.000,0.000,0.000,1.000,0.000,General,76.474,388.192
 Lights Internal Gains Nominal, CB_CLASSROOM_3_F2 COLLEGE - CLASSROOM LIGHTS,COLLEGE BLDG_LIGHT_SCH,CB_CLASSROOM_3_F2 ZN,56.44,39.5,431.325,7.642,10.923,0.000,0.000,0.000,1.000,0.000,General,76.474,388.193
 Lights Internal Gains Nominal, CB_CONFERENCE_ROOM_F4 COLLEGE - CONFERENCE LIGHTS,COLLEGE BLDG_LIGHT_SCH,CB_CONFERENCE_ROOM_F4 ZN,30.66,16.5,320.100,10.441,19.400,0.000,0.000,0.000,1.000,0.000,General,56.754,288.090
 Lights Internal Gains Nominal, CB_CONFERENCE_ROOM_F3 COLLEGE - CONFERENCE LIGHTS,COLLEGE BLDG_LIGHT_SCH,CB_CONFERENCE_ROOM_F3 ZN,30.66,16.5,320.100,10.441,19.400,0.000,0.000,0.000,1.000,0.000,General,56.754,288.090
 Lights Internal Gains Nominal, CB_CONFERENCE_ROOM_F1 COLLEGE - CONFERENCE LIGHTS,COLLEGE BLDG_LIGHT_SCH,CB_CONFERENCE_ROOM_F1 ZN,45.99,24.8,480.150,10.441,19.400,0.000,0.000,0.000,1.000,0.000,General,85.131,432.135
 Lights Internal Gains Nominal, CB_CONFERENCE_ROOM_F2 COLLEGE - CONFERENCE LIGHTS,COLLEGE BLDG_LIGHT_SCH,CB_CONFERENCE_ROOM_F2 ZN,30.66,16.5,320.100,10.441,19.400,0.000,0.000,0.000,1.000,0.000,General,56.754,288.090
 Lights Internal Gains Nominal, CB_CORRIDOR_F1 COLLEGE - CORRIDOR LIGHTS,COLLEGE BLDG_LIGHT_SCH,CB_CORRIDOR_F1 ZN,122.17,0.0,539.150,4.413,N/A,0.000,0.000,0.000,1.000,0.000,General,95.591,485.235
 Lights Internal Gains Nominal, CB_CORRIDOR_F4 COLLEGE - CORRIDOR LIGHTS,COLLEGE BLDG_LIGHT_SCH,CB_CORRIDOR_F4 ZN,151.43,0.0,668.300,4.413,N/A,0.000,0.000,0.000,1.000,0.000,General,118.490,601.470
 Lights Internal Gains Nominal, CB_CORRIDOR_F2 COLLEGE - CORRIDOR LIGHTS,COLLEGE BLDG_LIGHT_SCH,CB_CORRIDOR_F2 ZN,92.90,0.0,410.000,4.413,N/A,0.000,0.000,0.000,1.000,0.000,General,72.693,369.000
 Lights Internal Gains Nominal, CB_CORRIDOR_2_F3 COLLEGE - CORRIDOR LIGHTS,COLLEGE BLDG_LIGHT_SCH,CB_CORRIDOR_2_F3 ZN,61.32,0.0,270.600,4.413,N/A,0.000,0.000,0.000,1.000,0.000,General,47.977,243.540
 Lights Internal Gains Nominal, CB_CORRIDOR_1_F3 COLLEGE - CORRIDOR LIGHTS,COLLEGE BLDG_LIGHT_SCH,CB_CORRIDOR_1_F3 ZN,31.59,0.0,139.400,4.413,N/A,0.000,0.000,0.000,1.000,0.000,General,24.716,125.460
 Lights Internal Gains Nominal, CB_OFFICES_ENCLOSED_8_F1 COLLEGE - OFFICE LIGHTS,COLLEGE BLDG_LIGHT_SCH,CB_OFFICES_ENCLOSED_8_F1 ZN,12.26,0.7,97.680,7.965,148.000,0.000,0.000,0.000,1.000,0.000,General,17.319,87.912
 Lights Internal Gains Nominal, CB_OFFICES_ENCLOSED_7_F1 COLLEGE - OFFICE LIGHTS,COLLEGE BLDG_LIGHT_SCH,CB_OFFICES_ENCLOSED_7_F1 ZN,12.26,0.7,97.680,7.965,148.000,0.000,0.000,0.000,1.000,0.000,General,17.319,87.912
 Lights Internal Gains Nominal, CB_OFFICES_ENCLOSED_5_F1 COLLEGE - OFFICE LIGHTS,COLLEGE BLDG_LIGHT_SCH,CB_OFFICES_ENCLOSED_5_F1 ZN,12.26,0.7,97.680,7.965,148.000,0.000,0.000,0.000,1.000,0.000,General,17.319,87.912
 Lights Internal Gains Nominal, CB_OFFICES_ENCLOSED_4_F1 COLLEGE - OFFICE LIGHTS,COLLEGE BLDG_LIGHT_SCH,CB_OFFICES_ENCLOSED_4_F1 ZN,12.26,0.7,97.680,7.965,148.000,0.000,0.000,0.000,1.000,0.000,General,17.319,87.912
 Lights Internal Gains Nominal, CB_OFFICES_ENCLOSED_6_F1 COLLEGE - OFFICE LIGHTS,COLLEGE BLDG_LIGHT_SCH,CB_OFFICES_ENCLOSED_6_F1 ZN,12.26,0.7,97.680,7.965,148.000,0.000,0.000,0.000,1.000,0.000,General,17.319,87.912
 Lights Internal Gains Nominal, CB_OFFICES_OPEN_F4 COLLEGE - OFFICE LIGHTS,COLLEGE BLDG_LIGHT_SCH,CB_OFFICES_OPEN_F4 ZN,209.50,11.3,1668.700,7.965,148.000,0.000,0.000,0.000,1.000,0.000,General,295.861,1501.830
 Lights Internal Gains Nominal, CB_OFFICES_OPEN_F1 COLLEGE - OFFICE LIGHTS,COLLEGE BLDG_LIGHT_SCH,CB_OFFICES_OPEN_F1 ZN,194.17,10.5,1546.600,7.965,148.000,0.000,0.000,0.000,1.000,0.000,General,274.212,1391.940
 Lights Internal Gains Nominal, CB_FACULTY_OFFICE_6_F4 COLLEGE - OFFICE LIGHTS,COLLEGE BLDG_LIGHT_SCH,CB_FACULTY_OFFICE_6_F4 ZN,12.26,0.7,97.680,7.965,148.000,0.000,0.000,0.000,1.000,0.000,General,17.319,87.912
 Lights Internal Gains Nominal, CB_FACULTY_OFFICE_5_F4 COLLEGE - OFFICE LIGHTS,COLLEGE BLDG_LIGHT_SCH,CB_FACULTY_OFFICE_5_F4 ZN,12.26,0.7,97.680,7.965,148.000,0.000,0.000,0.000,1.000,0.000,General,17.319,87.912
 Lights Internal Gains Nominal, CB_FACULTY_OFFICE_4_F4 COLLEGE - OFFICE LIGHTS,COLLEGE BLDG_LIGHT_SCH,CB_FACULTY_OFFICE_4_F4 ZN,12.26,0.7,97.680,7.965,148.000,0.000,0.000,0.000,1.000,0.000,General,17.319,87.912
 Lights Internal Gains Nominal, CB_FACULTY_OFFICE_3_F4 COLLEGE - OFFICE LIGHTS,COLLEGE BLDG_LIGHT_SCH,CB_FACULTY_OFFICE_3_F4 ZN,12.26,0.7,97.680,7.965,148.000,0.000,0.000,0.000,1.000,0.000,General,17.319,87.912
 Lights Internal Gains Nominal, CB_FACULTY_OFFICE_2_F4 COLLEGE - OFFICE LIGHTS,COLLEGE BLDG_LIGHT_SCH,CB_FACULTY_OFFICE_2_F4 ZN,12.26,0.7,97.680,7.965,148.000,0.000,0.000,0.000,1.000,0.000,General,17.319,87.912
 Lights Internal Gains Nominal, CB_OFFICES_ENCLOSED_1_F1 COLLEGE - OFFICE LIGHTS,COLLEGE BLDG_LIGHT_SCH,CB_OFFICES_ENCLOSED_1_F1 ZN,12.26,0.7,97.680,7.965,148.000,0.000,0.000,0.000,1.000,0.000,General,17.319,87.912
 Lights Internal Gains Nominal, CB_FACULTY_OFFICE_1_F4 COLLEGE - OFFICE LIGHTS,COLLEGE BLDG_LIGHT_SCH,CB_FACULTY_OFFICE_1_F4 ZN,12.26,0.7,97.680,7.965,148.000,0.000,0.000,0.000,1.000,0.000,General,17.319,87.912
 Lights Internal Gains Nominal, CB_FACULTY_OFFICE_1_F3 COLLEGE - OFFICE LIGHTS,COLLEGE BLDG_LIGHT_SCH,CB_FACULTY_OFFICE_1_F3 ZN,12.26,0.7,97.680,7.965,148.000,0.000,0.000,0.000,1.000,0.000,General,17.319,87.912
 Lights Internal Gains Nominal, CB_FACULTY_OFFICE_3_F2 COLLEGE - OFFICE LIGHTS,COLLEGE BLDG_LIGHT_SCH,CB_FACULTY_OFFICE_3_F2 ZN,12.26,0.7,97.680,7.965,148.000,0.000,0.000,0.000,1.000,0.000,General,17.319,87.912
 Lights Internal Gains Nominal, CB_FACULTY_OFFICE_5_F3 COLLEGE - OFFICE LIGHTS,COLLEGE BLDG_LIGHT_SCH,CB_FACULTY_OFFICE_5_F3 ZN,12.26,0.7,97.680,7.965,148.000,0.000,0.000,0.000,1.000,0.000,General,17.319,87.912
 Lights Internal Gains Nominal, CB_FACULTY_OFFICE_4_F3 COLLEGE - OFFICE LIGHTS,COLLEGE BLDG_LIGHT_SCH,CB_FACULTY_OFFICE_4_F3 ZN,12.26,0.7,97.680,7.965,148.000,0.000,0.000,0.000,1.000,0.000,General,17.319,87.912
 Lights Internal Gains Nominal, CB_FACULTY_OFFICE_2_F3 COLLEGE - OFFICE LIGHTS,COLLEGE BLDG_LIGHT_SCH,CB_FACULTY_OFFICE_2_F3 ZN,12.26,0.7,97.680,7.965,148.000,0.000,0.000,0.000,1.000,0.000,General,17.319,87.912
 Lights Internal Gains Nominal, CB_OFFICES_ENCLOSED_2_F1 COLLEGE - OFFICE LIGHTS,COLLEGE BLDG_LIGHT_SCH,CB_OFFICES_ENCLOSED_2_F1 ZN,12.26,0.7,97.680,7.965,148.000,0.000,0.000,0.000,1.000,0.000,General,17.319,87.912
 Lights Internal Gains Nominal, CB_FACULTY_OFFICE_3_F3 COLLEGE - OFFICE LIGHTS,COLLEGE BLDG_LIGHT_SCH,CB_FACULTY_OFFICE_3_F3 ZN,12.26,0.7,97.680,7.965,148.000,0.000,0.000,0.000,1.000,0.000,General,17.319,87.912
 Lights Internal Gains Nominal, CB_FACULTY_OFFICE_8_F4 COLLEGE - OFFICE LIGHTS,COLLEGE BLDG_LIGHT_SCH,CB_FACULTY_OFFICE_8_F4 ZN,12.26,0.7,97.680,7.965,148.000,0.000,0.000,0.000,1.000,0.000,General,17.319,87.912
 Lights Internal Gains Nominal, CB_FACULTY_OFFICE_8_F3 COLLEGE - OFFICE LIGHTS,COLLEGE BLDG_LIGHT_SCH,CB_FACULTY_OFFICE_8_F3 ZN,12.26,0.7,97.680,7.965,148.000,0.000,0.000,0.000,1.000,0.000,General,17.319,87.912
 Lights Internal Gains Nominal, CB_FACULTY_OFFICE_7_F3 COLLEGE - OFFICE LIGHTS,COLLEGE BLDG_LIGHT_SCH,CB_FACULTY_OFFICE_7_F3 ZN,12.26,0.7,97.680,7.965,148.000,0.000,0.000,0.000,1.000,0.000,General,17.319,87.912
 Lights Internal Gains Nominal, CB_OFFICES_ENCLOSED_3_F1 COLLEGE - OFFICE LIGHTS,COLLEGE BLDG_LIGHT_SCH,CB_OFFICES_ENCLOSED_3_F1 ZN,12.26,0.7,97.680,7.965,148.000,0.000,0.000,0.000,1.000,0.000,General,17.319,87.912
 Lights Internal Gains Nominal, CB_FACULTY_OFFICE_6_F2 COLLEGE - OFFICE LIGHTS,COLLEGE BLDG_LIGHT_SCH,CB_FACULTY_OFFICE_6_F2 ZN,12.26,0.7,97.680,7.965,148.000,0.000,0.000,0.000,1.000,0.000,General,17.319,87.912
 Lights Internal Gains Nominal, CB_FACULTY_OFFICE_6_F3 COLLEGE - OFFICE LIGHTS,COLLEGE BLDG_LIGHT_SCH,CB_FACULTY_OFFICE_6_F3 ZN,12.26,0.7,97.680,7.965,148.000,0.000,0.000,0.000,1.000,0.000,General,17.319,87.912
 Lights Internal Gains Nominal, CB_FACULTY_OFFICE_7_F2 COLLEGE - OFFICE LIGHTS,COLLEGE BLDG_LIGHT_SCH,CB_FACULTY_OFFICE_7_F2 ZN,12.26,0.7,97.680,7.965,148.000,0.000,0.000,0.000,1.000,0.000,General,17.319,87.912
 Lights Internal Gains Nominal, CB_FACULTY_OFFICE_7_F4 COLLEGE - OFFICE LIGHTS,COLLEGE BLDG_LIGHT_SCH,CB_FACULTY_OFFICE_7_F4 ZN,12.26,0.7,97.680,7.965,148.000,0.000,0.000,0.000,1.000,0.000,General,17.319,87.912
 Lights Internal Gains Nominal, CB_FACULTY_OFFICE_8_F2 COLLEGE - OFFICE LIGHTS,COLLEGE BLDG_LIGHT_SCH,CB_FACULTY_OFFICE_8_F2 ZN,12.26,0.7,97.680,7.965,148.000,0.000,0.000,0.000,1.000,0.000,General,17.319,87.912
 Lights Internal Gains Nominal, CB_FACULTY_OFFICE_2_F2 COLLEGE - OFFICE LIGHTS,COLLEGE BLDG_LIGHT_SCH,CB_FACULTY_OFFICE_2_F2 ZN,12.26,0.7,97.680,7.965,148.000,0.000,0.000,0.000,1.000,0.000,General,17.319,87.912
 Lights Internal Gains Nominal, CB_OFFICES_OPEN_F3 COLLEGE - OFFICE LIGHTS,COLLEGE BLDG_LIGHT_SCH,CB_OFFICES_OPEN_F3 ZN,209.50,11.3,1668.700,7.965,148.000,0.000,0.000,0.000,1.000,0.000,General,295.861,1501.830
 Lights Internal Gains Nominal, CB_FACULTY_OFFICE_4_F2 COLLEGE - OFFICE LIGHTS,COLLEGE BLDG_LIGHT_SCH,CB_FACULTY_OFFICE_4_F2 ZN,12.26,0.7,97.680,7.965,148.000,0.000,0.000,0.000,1.000,0.000,General,17.319,87.912
 Lights Internal Gains Nominal, CB_OFFICES_OPEN_F2 COLLEGE - OFFICE LIGHTS,COLLEGE BLDG_LIGHT_SCH,CB_OFFICES_OPEN_F2 ZN,209.50,11.3,1668.700,7.965,148.000,0.000,0.000,0.000,1.000,0.000,General,295.861,1501.830
 Lights Internal Gains Nominal, CB_FACULTY_OFFICE_5_F2 COLLEGE - OFFICE LIGHTS,COLLEGE BLDG_LIGHT_SCH,CB_FACULTY_OFFICE_5_F2 ZN,12.26,0.7,97.680,7.965,148.000,0.000,0.000,0.000,1.000,0.000,General,17.319,87.912
 Lights Internal Gains Nominal, CB_FACULTY_OFFICE_1_F2 COLLEGE - OFFICE LIGHTS,COLLEGE BLDG_LIGHT_SCH,CB_FACULTY_OFFICE_1_F2 ZN,12.26,0.7,97.680,7.965,148.000,0.000,0.000,0.000,1.000,0.000,General,17.319,87.912
 Lights Internal Gains Nominal, CB_STUDENTS_RESTROOMS_1_F1 COLLEGE - RESTROOM LIGHTS,COLLEGE BLDG_LIGHT_SCH,CB_STUDENTS_RESTROOMS_1_F1 ZN,19.16,0.0,129.938,6.781,N/A,0.000,0.000,0.000,1.000,0.000,General,23.038,116.944
 Lights Internal Gains Nominal, CB_STAFF_RESTROOMS_1_F1 COLLEGE - RESTROOM LIGHTS,COLLEGE BLDG_LIGHT_SCH,CB_STAFF_RESTROOMS_1_F1 ZN,9.96,0.0,67.568,6.781,N/A,0.000,0.000,0.000,1.000,0.000,General,11.980,60.811
 Lights Internal Gains Nominal, CB_FACULTY_RESTROOMS_2_F4 COLLEGE - RESTROOM LIGHTS,COLLEGE BLDG_LIGHT_SCH,CB_FACULTY_RESTROOMS_2_F4 ZN,9.96,0.0,67.568,6.781,N/A,0.000,0.000,0.000,1.000,0.000,General,11.980,60.811
 Lights Internal Gains Nominal, CB_STUDENTS_RESTROOMS_1_F4 COLLEGE - RESTROOM LIGHTS,COLLEGE BLDG_LIGHT_SCH,CB_STUDENTS_RESTROOMS_1_F4 ZN,19.16,0.0,129.938,6.781,N/A,0.000,0.000,0.000,1.000,0.000,General,23.038,116.944
 Lights Internal Gains Nominal, CB_STUDENTS_RESTROOMS_2_F4 COLLEGE - RESTROOM LIGHTS,COLLEGE BLDG_LIGHT_SCH,CB_STUDENTS_RESTROOMS_2_F4 ZN,19.16,0.0,129.938,6.781,N/A,0.000,0.000,0.000,1.000,0.000,General,23.038,116.944
 Lights Internal Gains Nominal, CB_FACULTY_RESTROOMS_1_F4 COLLEGE - RESTROOM LIGHTS,COLLEGE BLDG_LIGHT_SCH,CB_FACULTY_RESTROOMS_1_F4 ZN,9.96,0.0,67.568,6.781,N/A,0.000,0.000,0.000,1.000,0.000,General,11.980,60.811
 Lights Internal Gains Nominal, CB_STUDENTS_RESTROOMS_1_F3 COLLEGE - RESTROOM LIGHTS,COLLEGE BLDG_LIGHT_SCH,CB_STUDENTS_RESTROOMS_1_F3 ZN,19.16,0.0,129.937,6.781,N/A,0.000,0.000,0.000,1.000,0.000,General,23.038,116.944
 Lights Internal Gains Nominal, CB_FACULTY_RESTROOMS_1_F3 COLLEGE - RESTROOM LIGHTS,COLLEGE BLDG_LIGHT_SCH,CB_FACULTY_RESTROOMS_1_F3 ZN,9.96,0.0,67.567,6.781,N/A,0.000,0.000,0.000,1.000,0.000,General,11.980,60.811
 Lights Internal Gains Nominal, CB_STUDENTS_RESTROOMS_2_F3 COLLEGE - RESTROOM LIGHTS,COLLEGE BLDG_LIGHT_SCH,CB_STUDENTS_RESTROOMS_2_F3 ZN,19.16,0.0,129.937,6.781,N/A,0.000,0.000,0.000,1.000,0.000,General,23.038,116.944
 Lights Internal Gains Nominal, CB_FACULTY_RESTROOMS_2_F3 COLLEGE - RESTROOM LIGHTS,COLLEGE BLDG_LIGHT_SCH,CB_FACULTY_RESTROOMS_2_F3 ZN,9.96,0.0,67.567,6.781,N/A,0.000,0.000,0.000,1.000,0.000,General,11.980,60.811
 Lights Internal Gains Nominal, CB_STAFF_RESTROOMS_2_F1 COLLEGE - RESTROOM LIGHTS,COLLEGE BLDG_LIGHT_SCH,CB_STAFF_RESTROOMS_2_F1 ZN,9.96,0.0,67.568,6.781,N/A,0.000,0.000,0.000,1.000,0.000,General,11.980,60.811
 Lights Internal Gains Nominal, CB_FACULTY_RESTROOMS_2_F2 COLLEGE - RESTROOM LIGHTS,COLLEGE BLDG_LIGHT_SCH,CB_FACULTY_RESTROOMS_2_F2 ZN,9.96,0.0,67.568,6.781,N/A,0.000,0.000,0.000,1.000,0.000,General,11.980,60.811
 Lights Internal Gains Nominal, CB_FACULTY_RESTROOMS_1_F2 COLLEGE - RESTROOM LIGHTS,COLLEGE BLDG_LIGHT_SCH,CB_FACULTY_RESTROOMS_1_F2 ZN,9.96,0.0,67.568,6.781,N/A,0.000,0.000,0.000,1.000,0.000,General,11.980,60.811
 Lights Internal Gains Nominal, CB_STUDENTS_RESTROOMS_2_F1 COLLEGE - RESTROOM LIGHTS,COLLEGE BLDG_LIGHT_SCH,CB_STUDENTS_RESTROOMS_2_F1 ZN,19.16,0.0,129.938,6.781,N/A,0.000,0.000,0.000,1.000,0.000,General,23.038,116.944
 Lights Internal Gains Nominal, CB_STUDENTS_RESTROOMS_2_F2 COLLEGE - RESTROOM LIGHTS,COLLEGE BLDG_LIGHT_SCH,CB_STUDENTS_RESTROOMS_2_F2 ZN,19.16,0.0,129.938,6.781,N/A,0.000,0.000,0.000,1.000,0.000,General,23.038,116.944
 Lights Internal Gains Nominal, CB_STUDENTS_RESTROOMS_1_F2 COLLEGE - RESTROOM LIGHTS,COLLEGE BLDG_LIGHT_SCH,CB_STUDENTS_RESTROOMS_1_F2 ZN,19.16,0.0,129.938,6.781,N/A,0.000,0.000,0.000,1.000,0.000,General,23.038,116.944
 Lights Internal Gains Nominal, CB_LAB_3_F4 COLLEGE - LABORATORY LIGHTS,COLLEGE BLDG_LIGHT_SCH,CB_LAB_3_F4 ZN,135.17,36.4,1935.150,14.316,53.200,0.000,0.000,0.000,1.000,0.000,General,343.102,1741.635
 Lights Internal Gains Nominal, CB_LAB_4_F4 COLLEGE - LABORATORY LIGHTS,COLLEGE BLDG_LIGHT_SCH,CB_LAB_4_F4 ZN,135.17,36.4,1935.150,14.316,53.200,0.000,0.000,0.000,1.000,0.000,General,343.102,1741.635
 Lights Internal Gains Nominal, CB_LAB_1_F4 COLLEGE - LABORATORY LIGHTS,COLLEGE BLDG_LIGHT_SCH,CB_LAB_1_F4 ZN,135.17,36.4,1935.150,14.316,53.200,0.000,0.000,0.000,1.000,0.000,General,343.102,1741.635
[...]
 Component Sizing Information, Pump:VariableSpeed, HOT WATER LOOP PUMP, Design Flow Rate [m3/s], 2.03254E-003
 Component Sizing Information, Pump:VariableSpeed, HOT WATER LOOP PUMP, Design Power Consumption [W], 534.39801
 Component Sizing Information, WaterHeater:Mixed, 300GAL NATURAL GAS WATER HEATER - 300KBTU/HR 0.804 THERM EFF, Use Side Design Flow Rate [m3/s], 3.65923E-005
 Component Sizing Information, Pump:ConstantSpeed, MAIN SERVICE WATER LOOP CIRCULATOR PUMP, Design Flow Rate [m3/s], 3.65923E-005
 Component Sizing Information, Pump:ConstantSpeed, MAIN SERVICE WATER LOOP CIRCULATOR PUMP, Design Power Consumption [W], 2.00326
Environment:Design Day Data,4.60,0.00,DefaultMultipliers,Wetbulb,4.60,{C},101229,10,2.5,0.00,No,No
Environment:Design Day Misc, 21,1229.0,0.1415,5.7310E-002,1.0,-11.15,-20.1,ASHRAEClearSky
Environment,RUN PERIOD 1,WeatherFileRunPeriod,01/01/2006,12/31/2006,Sunday,365,Use RunPeriod Specified Day,No,No,No,Yes,Yes,Clark and Allen
Environment:Design Day Data,33.90,7.90,DefaultMultipliers,Wetbulb,25.10,{C},101229,270,3.1,0.00,No,No
Environment:Design Day Misc,233,1106.3,0.2000,0.1216,1.0,-3.33,12.4,ASHRAETau
Environment:Design Day Data,4.60,0.00,DefaultMultipliers,Wetbulb,4.60,{C},101229,10,2.5,0.00,No,No
Environment:Design Day Misc, 21,1229.0,0.1415,5.7310E-002,1.0,-11.15,-20.1,ASHRAEClearSky
Environment,RUN PERIOD 1,WeatherFileRunPeriod,01/01/2006,12/31/2006,Sunday,365,Use RunPeriod Specified Day,No,No,No,Yes,Yes,Clark and Allen
Environment:Daylight Saving,Yes,InputFile,03/12,11/05
Environment:WarmupDays, 13
 Warmup Convergence Information,CB_CAFE_STUDY_LOUNGE_F1 ZN,RunPeriod: RUN PERIOD 1,0.6883282603,0.6943168902,Pass,Pass,0.5425502346,0.5069622881,Pass,Pass
 Warmup Convergence Information,CB_CLASSROOM_1_F2 ZN,RunPeriod: RUN PERIOD 1,0.1886225061,0.2485723504,Pass,Pass,1.5272173095,2.6050947347,Pass,Pass
 Warmup Convergence Information,CB_CLASSROOM_1_F3 ZN,RunPeriod: RUN PERIOD 1,0.1833434473,0.2482468191,Pass,Pass,0.9962347155,1.6266756824,Pass,Pass
 Warmup Convergence Information,CB_CLASSROOM_1_F4 ZN,RunPeriod: RUN PERIOD 1,0.1860651837,0.2908420912,Pass,Pass,0.5327101913,0.5009869625,Pass,Pass
 Warmup Convergence Information,CB_CLASSROOM_2_F2 ZN,RunPeriod: RUN PERIOD 1,0.1999686717,0.2010014483,Pass,Pass,1.5037735547,2.2890503493,Pass,Pass
 Warmup Convergence Information,CB_CLASSROOM_2_F3 ZN,RunPeriod: RUN PERIOD 1,0.1942998960,0.2002894909,Pass,Pass,1.3207954102,1.9155894476,Pass,Pass
 Warmup Convergence Information,CB_CLASSROOM_2_F4 ZN,RunPeriod: RUN PERIOD 1,0.1737842799,0.2335660662,Pass,Pass,0.5850620085,0.5408736811,Pass,Pass
 Warmup Convergence Information,CB_CLASSROOM_3_F2 ZN,RunPeriod: RUN PERIOD 1,0.1949757878,0.1947402646,Pass,Pass,1.5011328273,2.2837361115,Pass,Pass
 Warmup Convergence Information,CB_CLASSROOM_3_F3 ZN,RunPeriod: RUN PERIOD 1,0.1898197302,0.1940700536,Pass,Pass,1.3195145431,1.9190631332,Pass,Pass
 Warmup Convergence Information,CB_CLASSROOM_3_F4 ZN,RunPeriod: RUN PERIOD 1,0.1660483211,0.2254702430,Pass,Pass,0.5791932050,0.5309156328,Pass,Pass
 Warmup Convergence Information,CB_CLASSROOM_4_F2 ZN,RunPeriod: RUN PERIOD 1,0.1849076069,0.1865520197,Pass,Pass,1.4522204338,2.2237100810,Pass,Pass
 Warmup Convergence Information,CB_CLASSROOM_4_F3 ZN,RunPeriod: RUN PERIOD 1,0.1799249441,0.1865390891,Pass,Pass,1.2479464850,1.7932033913,Pass,Pass
 Warmup Convergence Information,CB_CLASSROOM_4_F4 ZN,RunPeriod: RUN PERIOD 1,0.1701963883,0.2321735133,Pass,Pass,0.5796348929,0.5302837796,Pass,Pass
 Warmup Convergence Information,CB_CLASSROOM_5_F2 ZN,RunPeriod: RUN PERIOD 1,0.1832956319,0.1847643445,Pass,Pass,1.4315705364,2.2049889671,Pass,Pass
 Warmup Convergence Information,CB_CLASSROOM_5_F3 ZN,RunPeriod: RUN PERIOD 1,0.1760160275,0.1822151617,Pass,Pass,1.2497193057,1.8051160409,Pass,Pass
 Warmup Convergence Information,CB_CLASSROOM_5_F4 ZN,RunPeriod: RUN PERIOD 1,0.1733632775,0.2337383967,Pass,Pass,0.5825979105,0.5379639907,Pass,Pass
 Warmup Convergence Information,CB_CLASSROOM_6_F2 ZN,RunPeriod: RUN PERIOD 1,0.2255668923,0.2206120612,Pass,Pass,1.5735014772,2.5867762426,Pass,Pass
 Warmup Convergence Information,CB_CLASSROOM_6_F3 ZN,RunPeriod: RUN PERIOD 1,0.1924564622,0.1962593829,Pass,Pass,1.3261701681,1.9492570277,Pass,Pass
 Warmup Convergence Information,CB_CLASSROOM_6_F4 ZN,RunPeriod: RUN PERIOD 1,0.1851469004,0.2844278873,Pass,Pass,0.5329951165,0.5049285836,Pass,Pass
 Warmup Convergence Information,CB_CLASSROOM_7_F2 ZN,RunPeriod: RUN PERIOD 1,0.2463055880,0.2398198856,Pass,Pass,1.6417713066,2.7824787560,Pass,Pass
 Warmup Convergence Information,CB_CLASSROOM_7_F3 ZN,RunPeriod: RUN PERIOD 1,0.1991774604,0.2040069242,Pass,Pass,1.3297754270,1.9581146701,Pass,Pass
 Warmup Convergence Information,CB_CLASSROOM_8_F2 ZN,RunPeriod: RUN PERIOD 1,0.2396339720,0.2847301831,Pass,Pass,1.3628469251,2.1089740127,Pass,Pass
 Warmup Convergence Information,CB_CLASSROOM_8_F3 ZN,RunPeriod: RUN PERIOD 1,0.1917983243,0.2564815446,Pass,Pass,0.9943663301,1.5878212143,Pass,Pass
 Warmup Convergence Information,CB_CONFERENCE_ROOM_F1 ZN,RunPeriod: RUN PERIOD 1,0.7087248603,0.6029217337,Pass,Pass,0.5212662405,0.6174610882,Pass,Pass
 Warmup Convergence Information,CB_CONFERENCE_ROOM_F2 ZN,RunPeriod: RUN PERIOD 1,0.7819218198,0.5700581265,Pass,Pass,0.5131023055,0.4813649643,Pass,Pass
 Warmup Convergence Information,CB_CONFERENCE_ROOM_F3 ZN,RunPeriod: RUN PERIOD 1,0.8486356124,0.6029125715,Pass,Pass,0.5091970069,0.4785141164,Pass,Pass
 Warmup Convergence Information,CB_CONFERENCE_ROOM_F4 ZN,RunPeriod: RUN PERIOD 1,0.7220184768,0.5849317621,Pass,Pass,0.5234060168,0.5764845098,Pass,Pass
 Warmup Convergence Information,CB_CORRIDOR_1_F3 ZN,RunPeriod: RUN PERIOD 1,0.1101627416,0.1107034762,Pass,Pass,0.6792834787,0.8064743578,Pass,Pass
 Warmup Convergence Information,CB_CORRIDOR_2_F3 ZN,RunPeriod: RUN PERIOD 1,7.5753551566E-002,4.8314831413E-002,Pass,Pass,0.5939217336,0.6949607825,Pass,Pass
 Warmup Convergence Information,CB_CORRIDOR_F1 ZN,RunPeriod: RUN PERIOD 1,5.6032012362E-002,4.2309662306E-002,Pass,Pass,0.4927056210,0.4931584495,Pass,Pass
 Warmup Convergence Information,CB_CORRIDOR_F2 ZN,RunPeriod: RUN PERIOD 1,7.9808918136E-002,6.0128926620E-002,Pass,Pass,0.5148772271,0.4808229632,Pass,Pass
 Warmup Convergence Information,CB_CORRIDOR_F4 ZN,RunPeriod: RUN PERIOD 1,0.1073106652,0.1154362931,Pass,Pass,0.5312100581,0.5038323466,Pass,Pass
 Warmup Convergence Information,CB_ENTRANCE_LOBBY_F1 ZN,RunPeriod: RUN PERIOD 1,9.4736237582E-002,0.1241345784,Pass,Pass,0.6218287217,0.6426843185,Pass,Pass
 Warmup Convergence Information,CB_FACULTY_OFFICE_1_F2 ZN,RunPeriod: RUN PERIOD 1,0.1510603721,0.1432200703,Pass,Pass,0.5532137578,0.5315520580,Pass,Pass
 Warmup Convergence Information,CB_FACULTY_OFFICE_1_F3 ZN,RunPeriod: RUN PERIOD 1,0.1648161097,0.1473870276,Pass,Pass,0.5603056195,0.5465321033,Pass,Pass
 Warmup Convergence Information,CB_FACULTY_OFFICE_1_F4 ZN,RunPeriod: RUN PERIOD 1,0.1707505480,0.1997424022,Pass,Pass,0.5208406014,0.5160419844,Pass,Pass
 Warmup Convergence Information,CB_FACULTY_OFFICE_2_F2 ZN,RunPeriod: RUN PERIOD 1,0.1443923054,0.1325949211,Pass,Pass,0.5428030667,0.5165991856,Pass,Pass
 Warmup Convergence Information,CB_FACULTY_OFFICE_2_F3 ZN,RunPeriod: RUN PERIOD 1,0.1572751961,0.1341146879,Pass,Pass,0.5436540332,0.5194906588,Pass,Pass
 Warmup Convergence Information,CB_FACULTY_OFFICE_2_F4 ZN,RunPeriod: RUN PERIOD 1,0.1603059360,0.1780591908,Pass,Pass,0.5324788108,0.5359479992,Pass,Pass
 Warmup Convergence Information,CB_FACULTY_OFFICE_3_F2 ZN,RunPeriod: RUN PERIOD 1,0.1428361798,0.1291269772,Pass,Pass,0.5409335715,0.5130321142,Pass,Pass
 Warmup Convergence Information,CB_FACULTY_OFFICE_3_F3 ZN,RunPeriod: RUN PERIOD 1,0.1550794644,0.1298110867,Pass,Pass,0.5411088476,0.5140697808,Pass,Pass
 Warmup Convergence Information,CB_FACULTY_OFFICE_3_F4 ZN,RunPeriod: RUN PERIOD 1,0.1566425974,0.1725217156,Pass,Pass,0.5260001590,0.5242699264,Pass,Pass
 Warmup Convergence Information,CB_FACULTY_OFFICE_4_F2 ZN,RunPeriod: RUN PERIOD 1,0.1423967179,0.1281548841,Pass,Pass,0.5404999733,0.5117401526,Pass,Pass
 Warmup Convergence Information,CB_FACULTY_OFFICE_4_F3 ZN,RunPeriod: RUN PERIOD 1,0.1545335870,0.1286987600,Pass,Pass,0.5404853331,0.5131343112,Pass,Pass
 Warmup Convergence Information,CB_FACULTY_OFFICE_4_F4 ZN,RunPeriod: RUN PERIOD 1,0.1558770956,0.1713165161,Pass,Pass,0.5254651381,0.5223369526,Pass,Pass
 Warmup Convergence Information,CB_FACULTY_OFFICE_5_F2 ZN,RunPeriod: RUN PERIOD 1,0.1423559480,0.1280779891,Pass,Pass,0.5404667469,0.5116755450,Pass,Pass
 Warmup Convergence Information,CB_FACULTY_OFFICE_5_F3 ZN,RunPeriod: RUN PERIOD 1,0.1545346290,0.1286810716,Pass,Pass,0.5404651505,0.5131049870,Pass,Pass
 Warmup Convergence Information,CB_FACULTY_OFFICE_5_F4 ZN,RunPeriod: RUN PERIOD 1,0.1558720827,0.1713042870,Pass,Pass,0.5254493087,0.5223113061,Pass,Pass
 Warmup Convergence Information,CB_FACULTY_OFFICE_6_F2 ZN,RunPeriod: RUN PERIOD 1,0.1427221751,0.1288517133,Pass,Pass,0.5408703626,0.5125515846,Pass,Pass
 Warmup Convergence Information,CB_FACULTY_OFFICE_6_F3 ZN,RunPeriod: RUN PERIOD 1,0.1550214262,0.1296618459,Pass,Pass,0.5410165870,0.5139172261,Pass,Pass
 Warmup Convergence Information,CB_FACULTY_OFFICE_6_F4 ZN,RunPeriod: RUN PERIOD 1,0.1565829101,0.1724103126,Pass,Pass,0.5259466392,0.5240660814,Pass,Pass
 Warmup Convergence Information,CB_FACULTY_OFFICE_7_F2 ZN,RunPeriod: RUN PERIOD 1,0.1436998995,0.1313418864,Pass,Pass,0.5424336714,0.5152811431,Pass,Pass
 Warmup Convergence Information,CB_FACULTY_OFFICE_7_F3 ZN,RunPeriod: RUN PERIOD 1,0.1569188261,0.1334552444,Pass,Pass,0.5434292126,0.5186232659,Pass,Pass
 Warmup Convergence Information,CB_FACULTY_OFFICE_7_F4 ZN,RunPeriod: RUN PERIOD 1,0.1599869465,0.1774627568,Pass,Pass,0.5315204416,0.5339868009,Pass,Pass
 Warmup Convergence Information,CB_FACULTY_OFFICE_8_F2 ZN,RunPeriod: RUN PERIOD 1,0.1485995431,0.1389957132,Pass,Pass,0.5498057297,0.5252324612,Pass,Pass
 Warmup Convergence Information,CB_FACULTY_OFFICE_8_F3 ZN,RunPeriod: RUN PERIOD 1,0.1632126692,0.1449627792,Pass,Pass,0.5565336612,0.5406889257,Pass,Pass
 Warmup Convergence Information,CB_FACULTY_OFFICE_8_F4 ZN,RunPeriod: RUN PERIOD 1,0.1692631717,0.1975081262,Pass,Pass,0.5231532107,0.5135827153,Pass,Pass
 Warmup Convergence Information,CB_FACULTY_RESTROOMS_1_F2 ZN,RunPeriod: RUN PERIOD 1,8.2815967916E-002,7.4888971870E-002,Pass,Pass,1.4101947539,2.4855640432,Pass,Pass
 Warmup Convergence Information,CB_FACULTY_RESTROOMS_1_F3 ZN,RunPeriod: RUN PERIOD 1,8.7383994857E-002,7.7600333851E-002,Pass,Pass,1.3636391878,3.1742926182,Pass,Pass
 Warmup Convergence Information,CB_FACULTY_RESTROOMS_1_F4 ZN,RunPeriod: RUN PERIOD 1,7.7089697504E-002,8.6465454947E-002,Pass,Pass,0.5947553688,0.5033905492,Pass,Pass
 Warmup Convergence Information,CB_FACULTY_RESTROOMS_2_F2 ZN,RunPeriod: RUN PERIOD 1,8.2514351551E-002,7.4686308349E-002,Pass,Pass,1.3733405828,2.3940845747,Pass,Pass
 Warmup Convergence Information,CB_FACULTY_RESTROOMS_2_F3 ZN,RunPeriod: RUN PERIOD 1,9.0477092591E-002,8.0384781415E-002,Pass,Pass,1.3978034075,3.2477297796,Pass,Pass
 Warmup Convergence Information,CB_FACULTY_RESTROOMS_2_F4 ZN,RunPeriod: RUN PERIOD 1,7.7311478284E-002,8.8427277936E-002,Pass,Pass,0.5922453196,0.5003146155,Pass,Pass
 Warmup Convergence Information,CB_LAB_1_F4 ZN,RunPeriod: RUN PERIOD 1,0.4483559616,0.4719795958,Pass,Pass,0.5677060149,0.4998799345,Pass,Pass
 Warmup Convergence Information,CB_LAB_2_F4 ZN,RunPeriod: RUN PERIOD 1,0.4163675337,0.4203625153,Pass,Pass,0.5826415696,0.5192093167,Pass,Pass
 Warmup Convergence Information,CB_LAB_3_F4 ZN,RunPeriod: RUN PERIOD 1,0.4374521676,0.4407331099,Pass,Pass,0.5747593277,0.5137581423,Pass,Pass
 Warmup Convergence Information,CB_LAB_4_F4 ZN,RunPeriod: RUN PERIOD 1,0.4510869170,0.4726692846,Pass,Pass,0.5634930366,0.4990228182,Pass,Pass
 Warmup Convergence Information,CB_LECTURE_ROOM_1_F1 ZN,RunPeriod: RUN PERIOD 1,0.1308721366,0.1330242573,Pass,Pass,0.6301268007,0.6969482811,Pass,Pass
 Warmup Convergence Information,CB_LECTURE_ROOM_2_F1 ZN,RunPeriod: RUN PERIOD 1,0.1645289503,0.1886434954,Pass,Pass,0.6064680488,0.6629046869,Pass,Pass
 Warmup Convergence Information,CB_LIBRARY_MEDIA_CENTER_F1 ZN,RunPeriod: RUN PERIOD 1,0.1794336776,0.1242971415,Pass,Pass,0.4926057146,0.4927040789,Pass,Pass
 Warmup Convergence Information,CB_MAIN_STAIRS_F1 ZN,RunPeriod: RUN PERIOD 1,9.1575530863E-002,0.1061901897,Pass,Pass,0.5246035282,0.5112808702,Pass,Pass
 Warmup Convergence Information,CB_MAIN_STAIRS_F2 ZN,RunPeriod: RUN PERIOD 1,0.1010945313,0.1223132741,Pass,Pass,0.6066765215,0.6371629110,Pass,Pass
 Warmup Convergence Information,CB_MAIN_STAIRS_F3 ZN,RunPeriod: RUN PERIOD 1,0.1111547300,0.1304803974,Pass,Pass,0.6472360398,0.7285500173,Pass,Pass
 Warmup Convergence Information,CB_MAIN_STAIRS_F4 ZN,RunPeriod: RUN PERIOD 1,0.1240355792,0.1712554619,Pass,Pass,0.5226009296,0.4974933049,Pass,Pass
 Warmup Convergence Information,CB_OFFICES_ENCLOSED_1_F1 ZN,RunPeriod: RUN PERIOD 1,0.1293578273,0.1207269223,Pass,Pass,0.5040895788,0.4926710431,Pass,Pass
 Warmup Convergence Information,CB_OFFICES_ENCLOSED_2_F1 ZN,RunPeriod: RUN PERIOD 1,0.1246417946,0.1123754845,Pass,Pass,0.5036393450,0.4935531148,Pass,Pass
 Warmup Convergence Information,CB_OFFICES_ENCLOSED_3_F1 ZN,RunPeriod: RUN PERIOD 1,0.1233932604,0.1092517009,Pass,Pass,0.5029444096,0.4923741112,Pass,Pass
 Warmup Convergence Information,CB_OFFICES_ENCLOSED_4_F1 ZN,RunPeriod: RUN PERIOD 1,0.1230900093,0.1085474473,Pass,Pass,0.5027371785,0.4924401709,Pass,Pass
 Warmup Convergence Information,CB_OFFICES_ENCLOSED_5_F1 ZN,RunPeriod: RUN PERIOD 1,0.1230442850,0.1084519520,Pass,Pass,0.5027145816,0.4924532473,Pass,Pass
 Warmup Convergence Information,CB_OFFICES_ENCLOSED_6_F1 ZN,RunPeriod: RUN PERIOD 1,0.1231710870,0.1087558874,Pass,Pass,0.5027910972,0.4923739901,Pass,Pass
 Warmup Convergence Information,CB_OFFICES_ENCLOSED_7_F1 ZN,RunPeriod: RUN PERIOD 1,0.1236606123,0.1099750735,Pass,Pass,0.5031143140,0.4922838847,Pass,Pass
 Warmup Convergence Information,CB_OFFICES_ENCLOSED_8_F1 ZN,RunPeriod: RUN PERIOD 1,0.1220613517,0.1114151355,Pass,Pass,0.5012090469,0.4921949594,Pass,Pass
 Warmup Convergence Information,CB_OFFICES_OPEN_F1 ZN,RunPeriod: RUN PERIOD 1,9.2962457257E-002,6.8632393159E-002,Pass,Pass,0.4931259019,0.4933986834,Pass,Pass
 Warmup Convergence Information,CB_OFFICES_OPEN_F2 ZN,RunPeriod: RUN PERIOD 1,0.1265223355,0.1143793765,Pass,Pass,1.0652059459,1.8994851539,Pass,Pass
 Warmup Convergence Information,CB_OFFICES_OPEN_F3 ZN,RunPeriod: RUN PERIOD 1,0.1497047161,0.1256969331,Pass,Pass,0.7549443399,1.4591741381,Pass,Pass
 Warmup Convergence Information,CB_OFFICES_OPEN_F4 ZN,RunPeriod: RUN PERIOD 1,0.1299892693,0.1241381236,Pass,Pass,0.5306386220,0.5039176511,Pass,Pass
 Warmup Convergence Information,CB_PUBLIC_ELEVATORS_F1 ZN,RunPeriod: RUN PERIOD 1,2.1031527614E-002,1.5992545528E-002,Pass,Pass,0.0000000000,0.0000000000,Pass,Pass
 Warmup Convergence Information,CB_PUBLIC_ELEVATORS_F2 ZN,RunPeriod: RUN PERIOD 1,2.8521662202E-002,2.1796167004E-002,Pass,Pass,0.0000000000,0.0000000000,Pass,Pass
 Warmup Convergence Information,CB_PUBLIC_ELEVATORS_F3 ZN,RunPeriod: RUN PERIOD 1,3.0642150660E-002,2.2683903391E-002,Pass,Pass,0.0000000000,0.0000000000,Pass,Pass
 Warmup Convergence Information,CB_PUBLIC_ELEVATORS_F4 ZN,RunPeriod: RUN PERIOD 1,4.7802470894E-002,3.8679009932E-002,Pass,Pass,0.0000000000,0.0000000000,Pass,Pass
 Warmup Convergence Information,CB_SECONDARY_STAIRS_1_F1 ZN,RunPeriod: RUN PERIOD 1,0.1548810225,0.1845125378,Pass,Pass,0.5193201081,0.4723173478,Pass,Pass
 Warmup Convergence Information,CB_SECONDARY_STAIRS_1_F2 ZN,RunPeriod: RUN PERIOD 1,0.1273061440,0.1529104067,Pass,Pass,0.6210847831,0.6742457031,Pass,Pass
 Warmup Convergence Information,CB_SECONDARY_STAIRS_1_F3 ZN,RunPeriod: RUN PERIOD 1,0.1310344820,0.1477767853,Pass,Pass,0.6664505899,0.7623162520,Pass,Pass
 Warmup Convergence Information,CB_SECONDARY_STAIRS_1_F4 ZN,RunPeriod: RUN PERIOD 1,0.1508097656,0.2120930270,Pass,Pass,0.5149655034,0.4924092912,Pass,Pass
 Warmup Convergence Information,CB_SECONDARY_STAIRS_2_F1 ZN,RunPeriod: RUN PERIOD 1,0.1035521398,0.1065832568,Pass,Pass,0.5690003316,0.5826542223,Pass,Pass
 Warmup Convergence Information,CB_SECONDARY_STAIRS_2_F2 ZN,RunPeriod: RUN PERIOD 1,0.1210759990,0.1332661459,Pass,Pass,0.6525229371,0.7387770726,Pass,Pass
 Warmup Convergence Information,CB_SECONDARY_STAIRS_2_F3 ZN,RunPeriod: RUN PERIOD 1,0.1305489394,0.1374690030,Pass,Pass,0.6500842073,0.7187691984,Pass,Pass
 Warmup Convergence Information,CB_SECONDARY_STAIRS_2_F4 ZN,RunPeriod: RUN PERIOD 1,0.1530499189,0.1995784969,Pass,Pass,0.5065623971,0.4901864319,Pass,Pass
 Warmup Convergence Information,CB_STAFF_RESTROOMS_1_F1 ZN,RunPeriod: RUN PERIOD 1,6.7935637568E-002,6.5849360799E-002,Pass,Pass,0.6307397046,0.5288002418,Pass,Pass
 Warmup Convergence Information,CB_STAFF_RESTROOMS_2_F1 ZN,RunPeriod: RUN PERIOD 1,6.9723782689E-002,6.7556285380E-002,Pass,Pass,0.6269316374,0.5211231347,Pass,Pass
 Warmup Convergence Information,CB_STORAGE_F1 ZN,RunPeriod: RUN PERIOD 1,0.1933218847,0.2014241740,Pass,Pass,0.6185261248,0.5195346555,Pass,Pass
 Warmup Convergence Information,CB_STUDENTS_RESTROOMS_1_F1 ZN,RunPeriod: RUN PERIOD 1,7.3616648497E-002,7.0796626308E-002,Pass,Pass,0.6106585527,0.5045782717,Pass,Pass
 Warmup Convergence Information,CB_STUDENTS_RESTROOMS_1_F2 ZN,RunPeriod: RUN PERIOD 1,8.5192055128E-002,7.6924722781E-002,Pass,Pass,1.2099587643,2.0015977959,Pass,Pass
 Warmup Convergence Information,CB_STUDENTS_RESTROOMS_1_F3 ZN,RunPeriod: RUN PERIOD 1,9.2848275193E-002,8.2143790946E-002,Pass,Pass,0.8866182046,1.7073912973,Pass,Pass
 Warmup Convergence Information,CB_STUDENTS_RESTROOMS_1_F4 ZN,RunPeriod: RUN PERIOD 1,8.1650932987E-002,8.8889930571E-002,Pass,Pass,0.5840337578,0.4982906039,Pass,Pass
 Warmup Convergence Information,CB_STUDENTS_RESTROOMS_2_F1 ZN,RunPeriod: RUN PERIOD 1,8.0804158147E-002,7.7556462256E-002,Pass,Pass,0.5918949985,0.4983756491,Pass,Pass
 Warmup Convergence Information,CB_STUDENTS_RESTROOMS_2_F2 ZN,RunPeriod: RUN PERIOD 1,9.5384065320E-002,8.5889836366E-002,Pass,Pass,1.4541819572,2.5839315864,Pass,Pass
 Warmup Convergence Information,CB_STUDENTS_RESTROOMS_2_F3 ZN,RunPeriod: RUN PERIOD 1,0.1049722767,9.2702883360E-002,Pass,Pass,1.3705902317,3.0587243257,Pass,Pass
 Warmup Convergence Information,CB_STUDENTS_RESTROOMS_2_F4 ZN,RunPeriod: RUN PERIOD 1,0.1073433791,0.1141835666,Pass,Pass,0.5640845531,0.4791445796,Pass,Pass
 Warmup Convergence Information,CB_STUDIO_1_F2 ZN,RunPeriod: RUN PERIOD 1,0.1508651512,0.1417083671,Pass,Pass,1.5721457896,2.5143472426,Pass,Pass
 Warmup Convergence Information,CB_STUDIO_1_F3 ZN,RunPeriod: RUN PERIOD 1,0.1775939440,0.1663424518,Pass,Pass,1.5206387444,2.4158956197,Pass,Pass
 Warmup Convergence Information,CB_STUDIO_2_F2 ZN,RunPeriod: RUN PERIOD 1,0.1651178802,0.1533434686,Pass,Pass,1.5519625150,2.3734791342,Pass,Pass
 Warmup Convergence Information,CB_STUDIO_2_F3 ZN,RunPeriod: RUN PERIOD 1,0.1656092143,0.1567675236,Pass,Pass,1.4010371804,2.0855905825,Pass,Pass
 Warmup Convergence Information,CB_UTILITY_F1 ZN,RunPeriod: RUN PERIOD 1,0.1146964346,0.1018012055,Pass,Pass,0.5578665504,0.5283017519,Pass,Pass
 Warmup Convergence Information,CB_UTILITY_F2 ZN,RunPeriod: RUN PERIOD 1,0.1108890290,9.8458785005E-002,Pass,Pass,1.0499772281,1.6676551640,Pass,Pass
 Warmup Convergence Information,CB_UTILITY_F3 ZN,RunPeriod: RUN PERIOD 1,0.1126811835,9.9996618003E-002,Pass,Pass,0.8102952053,1.3299363115,Pass,Pass
 Warmup Convergence Information,CB_UTILITY_F4 ZN,RunPeriod: RUN PERIOD 1,0.1159292472,0.1312257019,Pass,Pass,0.5387432662,0.5389296379,Pass,Pass
! <Program Control Information:Threads/Parallel Sims>, Threading Supported,Maximum Number of Threads, Env Set Threads (OMP_NUM_THREADS), EP Env Set Threads (EP_OMP_NUM_THREADS), IDF Set Threads, Number of Threads Used (Interior Radiant Exchange), Number Nominal Surfaces, Number Parallel Sims
Program Control:Threads/Parallel Sims, No,1, N/A, N/A, N/A, N/A, N/A, N/A
End of Data
