! Program Version,EnergyPlus, Version 23.1.0-87ed9199d4, YMD=2023.09.09 10:58,
! Output:Meter Objects (applicable to this run)
Output:Meter,Electricity:Facility,hourly; !- [J]
Output:Meter:Cumulative,Electricity:Facility,hourly; !- [J]
Output:Meter,Electricity:Building,hourly; !- [J]
Output:Meter:Cumulative,Electricity:Building,hourly; !- [J]
Output:Meter,Electricity:Zone:CB_CAFE_STUDY_LOUNGE_F1 ZN,hourly; !- [J]
Output:Meter:Cumulative,Electricity:Zone:CB_CAFE_STUDY_LOUNGE_F1 ZN,hourly; !- [J]
Output:Meter,Electricity:SpaceType:COLLEGE - LOUNGE,hourly; !- [J]
Output:Meter:Cumulative,Electricity:SpaceType:COLLEGE - LOUNGE,hourly; !- [J]
Output:Meter,InteriorLights:Electricity,hourly; !- [J]
Output:Meter:Cumulative,InteriorLights:Electricity,hourly; !- [J]
Output:Meter,InteriorLights:Electricity:Zone:CB_CAFE_STUDY_LOUNGE_F1 ZN,hourly; !- [J]
Output:Meter:Cumulative,InteriorLights:Electricity:Zone:CB_CAFE_STUDY_LOUNGE_F1 ZN,hourly; !- [J]
Output:Meter,InteriorLights:Electricity:SpaceType:COLLEGE - LOUNGE,hourly; !- [J]
Output:Meter:Cumulative,InteriorLights:Electricity:SpaceType:COLLEGE - LOUNGE,hourly; !- [J]
Output:Meter,General:InteriorLights:Electricity,hourly; !- [J]
Output:Meter:Cumulative,General:InteriorLights:Electricity,hourly; !- [J]
Output:Meter,General:InteriorLights:Electricity:Zone:CB_CAFE_STUDY_LOUNGE_F1 ZN,hourly; !- [J]
Output:Meter:Cumulative,General:InteriorLights:Electricity:Zone:CB_CAFE_STUDY_LOUNGE_F1 ZN,hourly; !- [J]
Output:Meter,General:InteriorLights:Electricity:SpaceType:COLLEGE - LOUNGE,hourly; !- [J]
Output:Meter:Cumulative,General:InteriorLights:Electricity:SpaceType:COLLEGE - LOUNGE,hourly; !- [J]
Output:Meter,Electricity:Zone:CB_CLASSROOM_1_F4 ZN,hourly; !- [J]
Output:Meter:Cumulative,Electricity:Zone:CB_CLASSROOM_1_F4 ZN,hourly; !- [J]
Output:Meter,Electricity:SpaceType:COLLEGE - CLASSROOM,hourly; !- [J]
Output:Meter:Cumulative,Electricity:SpaceType:COLLEGE - CLASSROOM,hourly; !- [J]
Output:Meter,InteriorLights:Electricity:Zone:CB_CLASSROOM_1_F4 ZN,hourly; !- [J]
Output:Meter:Cumulative,InteriorLights:Electricity:Zone:CB_CLASSROOM_1_F4 ZN,hourly; !- [J]
Output:Meter,InteriorLights:Electricity:SpaceType:COLLEGE - CLASSROOM,hourly; !- [J]
Output:Meter:Cumulative,InteriorLights:Electricity:SpaceType:COLLEGE - CLASSROOM,hourly; !- [J]
Output:Meter,General:InteriorLights:Electricity:Zone:CB_CLASSROOM_1_F4 ZN,hourly; !- [J]
Output:Meter:Cumulative,General:InteriorLights:Electricity:Zone:CB_CLASSROOM_1_F4 ZN,hourly; !- [J]
Output:Meter,General:InteriorLights:Electricity:SpaceType:COLLEGE - CLASSROOM,hourly; !- [J]
Output:Meter:Cumulative,General:InteriorLights:Electricity:SpaceType:COLLEGE - CLASSROOM,hourly; !- [J]
Output:Meter,Electricity:Zone:CB_CLASSROOM_2_F4 ZN,hourly; !- [J]
Output:Meter:Cumulative,Electricity:Zone:CB_CLASSROOM_2_F4 ZN,hourly; !- [J]
Output:Meter,InteriorLights:Electricity:Zone:CB_CLASSROOM_2_F4 ZN,hourly; !- [J]
Output:Meter:Cumulative,InteriorLights:Electricity:Zone:CB_CLASSROOM_2_F4 ZN,hourly; !- [J]
Output:Meter,General:InteriorLights:Electricity:Zone:CB_CLASSROOM_2_F4 ZN,hourly; !- [J]
Output:Meter:Cumulative,General:InteriorLights:Electricity:Zone:CB_CLASSROOM_2_F4 ZN,hourly; !- [J]
Output:Meter,Electricity:Zone:CB_CLASSROOM_3_F4 ZN,hourly; !- [J]
Output:Meter:Cumulative,Electricity:Zone:CB_CLASSROOM_3_F4 ZN,hourly; !- [J]
Output:Meter,InteriorLights:Electricity:Zone:CB_CLASSROOM_3_F4 ZN,hourly; !- [J]
Output:Meter:Cumulative,InteriorLights:Electricity:Zone:CB_CLASSROOM_3_F4 ZN,hourly; !- [J]
Output:Meter,General:InteriorLights:Electricity:Zone:CB_CLASSROOM_3_F4 ZN,hourly; !- [J]
Output:Meter:Cumulative,General:InteriorLights:Electricity:Zone:CB_CLASSROOM_3_F4 ZN,hourly; !- [J]
Output:Meter,Electricity:Zone:CB_CLASSROOM_5_F4 ZN,hourly; !- [J]
Output:Meter:Cumulative,Electricity:Zone:CB_CLASSROOM_5_F4 ZN,hourly; !- [J]
Output:Meter,InteriorLights:Electricity:Zone:CB_CLASSROOM_5_F4 ZN,hourly; !- [J]
Output:Meter:Cumulative,InteriorLights:Electricity:Zone:CB_CLASSROOM_5_F4 ZN,hourly; !- [J]
Output:Meter,General:InteriorLights:Electricity:Zone:CB_CLASSROOM_5_F4 ZN,hourly; !- [J]
Output:Meter:Cumulative,General:InteriorLights:Electricity:Zone:CB_CLASSROOM_5_F4 ZN,hourly; !- [J]
Output:Meter,Electricity:Zone:CB_CLASSROOM_6_F4 ZN,hourly; !- [J]
Output:Meter:Cumulative,Electricity:Zone:CB_CLASSROOM_6_F4 ZN,hourly; !- [J]
Output:Meter,InteriorLights:Electricity:Zone:CB_CLASSROOM_6_F4 ZN,hourly; !- [J]
Output:Meter:Cumulative,InteriorLights:Electricity:Zone:CB_CLASSROOM_6_F4 ZN,hourly; !- [J]
Output:Meter,General:InteriorLights:Electricity:Zone:CB_CLASSROOM_6_F4 ZN,hourly; !- [J]
Output:Meter:Cumulative,General:InteriorLights:Electricity:Zone:CB_CLASSROOM_6_F4 ZN,hourly; !- [J]
Output:Meter,Electricity:Zone:CB_CLASSROOM_7_F2 ZN,hourly; !- [J]
Output:Meter:Cumulative,Electricity:Zone:CB_CLASSROOM_7_F2 ZN,hourly; !- [J]
Output:Meter,InteriorLights:Electricity:Zone:CB_CLASSROOM_7_F2 ZN,hourly; !- [J]
Output:Meter:Cumulative,InteriorLights:Electricity:Zone:CB_CLASSROOM_7_F2 ZN,hourly; !- [J]
Output:Meter,General:InteriorLights:Electricity:Zone:CB_CLASSROOM_7_F2 ZN,hourly; !- [J]
Output:Meter:Cumulative,General:InteriorLights:Electricity:Zone:CB_CLASSROOM_7_F2 ZN,hourly; !- [J]
Output:Meter,Electricity:Zone:CB_CLASSROOM_6_F2 ZN,hourly; !- [J]
Output:Meter:Cumulative,Electricity:Zone:CB_CLASSROOM_6_F2 ZN,hourly; !- [J]
Output:Meter,InteriorLights:Electricity:Zone:CB_CLASSROOM_6_F2 ZN,hourly; !- [J]
Output:Meter:Cumulative,InteriorLights:Electricity:Zone:CB_CLASSROOM_6_F2 ZN,hourly; !- [J]
Output:Meter,General:InteriorLights:Electricity:Zone:CB_CLASSROOM_6_F2 ZN,hourly; !- [J]
Output:Meter:Cumulative,General:InteriorLights:Electricity:Zone:CB_CLASSROOM_6_F2 ZN,hourly; !- [J]
Output:Meter,Electricity:Zone:CB_CLASSROOM_5_F2 ZN,hourly; !- [J]
Output:Meter:Cumulative,Electricity:Zone:CB_CLASSROOM_5_F2 ZN,hourly; !- [J]
Output:Meter,InteriorLights:Electricity:Zone:CB_CLASSROOM_5_F2 ZN,hourly; !- [J]
Output:Meter:Cumulative,InteriorLights:Electricity:Zone:CB_CLASSROOM_5_F2 ZN,hourly; !- [J]
Output:Meter,General:InteriorLights:Electricity:Zone:CB_CLASSROOM_5_F2 ZN,hourly; !- [J]
Output:Meter:Cumulative,General:InteriorLights:Electricity:Zone:CB_CLASSROOM_5_F2 ZN,hourly; !- [J]
Output:Meter,Electricity:Zone:CB_CLASSROOM_4_F3 ZN,hourly; !- [J]
Output:Meter:Cumulative,Electricity:Zone:CB_CLASSROOM_4_F3 ZN,hourly; !- [J]
Output:Meter,InteriorLights:Electricity:Zone:CB_CLASSROOM_4_F3 ZN,hourly; !- [J]
Output:Meter:Cumulative,InteriorLights:Electricity:Zone:CB_CLASSROOM_4_F3 ZN,hourly; !- [J]
Output:Meter,General:InteriorLights:Electricity:Zone:CB_CLASSROOM_4_F3 ZN,hourly; !- [J]
Output:Meter:Cumulative,General:InteriorLights:Electricity:Zone:CB_CLASSROOM_4_F3 ZN,hourly; !- [J]
Output:Meter,Electricity:Zone:CB_CLASSROOM_3_F3 ZN,hourly; !- [J]
Output:Meter:Cumulative,Electricity:Zone:CB_CLASSROOM_3_F3 ZN,hourly; !- [J]
Output:Meter,InteriorLights:Electricity:Zone:CB_CLASSROOM_3_F3 ZN,hourly; !- [J]
Output:Meter:Cumulative,InteriorLights:Electricity:Zone:CB_CLASSROOM_3_F3 ZN,hourly; !- [J]
Output:Meter,General:InteriorLights:Electricity:Zone:CB_CLASSROOM_3_F3 ZN,hourly; !- [J]
Output:Meter:Cumulative,General:InteriorLights:Electricity:Zone:CB_CLASSROOM_3_F3 ZN,hourly; !- [J]
Output:Meter,Electricity:Zone:CB_CLASSROOM_5_F3 ZN,hourly; !- [J]
Output:Meter:Cumulative,Electricity:Zone:CB_CLASSROOM_5_F3 ZN,hourly; !- [J]
Output:Meter,InteriorLights:Electricity:Zone:CB_CLASSROOM_5_F3 ZN,hourly; !- [J]
Output:Meter:Cumulative,InteriorLights:Electricity:Zone:CB_CLASSROOM_5_F3 ZN,hourly; !- [J]
Output:Meter,General:InteriorLights:Electricity:Zone:CB_CLASSROOM_5_F3 ZN,hourly; !- [J]
Output:Meter:Cumulative,General:InteriorLights:Electricity:Zone:CB_CLASSROOM_5_F3 ZN,hourly; !- [J]
Output:Meter,Electricity:Zone:CB_CLASSROOM_1_F3 ZN,hourly; !- [J]
Output:Meter:Cumulative,Electricity:Zone:CB_CLASSROOM_1_F3 ZN,hourly; !- [J]
Output:Meter,InteriorLights:Electricity:Zone:CB_CLASSROOM_1_F3 ZN,hourly; !- [J]
Output:Meter:Cumulative,InteriorLights:Electricity:Zone:CB_CLASSROOM_1_F3 ZN,hourly; !- [J]
Output:Meter,General:InteriorLights:Electricity:Zone:CB_CLASSROOM_1_F3 ZN,hourly; !- [J]
Output:Meter:Cumulative,General:InteriorLights:Electricity:Zone:CB_CLASSROOM_1_F3 ZN,hourly; !- [J]
Output:Meter,Electricity:Zone:CB_CLASSROOM_2_F3 ZN,hourly; !- [J]
Output:Meter:Cumulative,Electricity:Zone:CB_CLASSROOM_2_F3 ZN,hourly; !- [J]
Output:Meter,InteriorLights:Electricity:Zone:CB_CLASSROOM_2_F3 ZN,hourly; !- [J]
Output:Meter:Cumulative,InteriorLights:Electricity:Zone:CB_CLASSROOM_2_F3 ZN,hourly; !- [J]
Output:Meter,General:InteriorLights:Electricity:Zone:CB_CLASSROOM_2_F3 ZN,hourly; !- [J]
Output:Meter:Cumulative,General:InteriorLights:Electricity:Zone:CB_CLASSROOM_2_F3 ZN,hourly; !- [J]
Output:Meter,Electricity:Zone:CB_CLASSROOM_8_F2 ZN,hourly; !- [J]
Output:Meter:Cumulative,Electricity:Zone:CB_CLASSROOM_8_F2 ZN,hourly; !- [J]
Output:Meter,InteriorLights:Electricity:Zone:CB_CLASSROOM_8_F2 ZN,hourly; !- [J]
Output:Meter:Cumulative,InteriorLights:Electricity:Zone:CB_CLASSROOM_8_F2 ZN,hourly; !- [J]
Output:Meter,General:InteriorLights:Electricity:Zone:CB_CLASSROOM_8_F2 ZN,hourly; !- [J]
Output:Meter:Cumulative,General:InteriorLights:Electricity:Zone:CB_CLASSROOM_8_F2 ZN,hourly; !- [J]
Output:Meter,Electricity:Zone:CB_CLASSROOM_6_F3 ZN,hourly; !- [J]
Output:Meter:Cumulative,Electricity:Zone:CB_CLASSROOM_6_F3 ZN,hourly; !- [J]
Output:Meter,InteriorLights:Electricity:Zone:CB_CLASSROOM_6_F3 ZN,hourly; !- [J]
Output:Meter:Cumulative,InteriorLights:Electricity:Zone:CB_CLASSROOM_6_F3 ZN,hourly; !- [J]
Output:Meter,General:InteriorLights:Electricity:Zone:CB_CLASSROOM_6_F3 ZN,hourly; !- [J]
Output:Meter:Cumulative,General:InteriorLights:Electricity:Zone:CB_CLASSROOM_6_F3 ZN,hourly; !- [J]
Output:Meter,Electricity:Zone:CB_CLASSROOM_7_F3 ZN,hourly; !- [J]
Output:Meter:Cumulative,Electricity:Zone:CB_CLASSROOM_7_F3 ZN,hourly; !- [J]
Output:Meter,InteriorLights:Electricity:Zone:CB_CLASSROOM_7_F3 ZN,hourly; !- [J]
Output:Meter:Cumulative,InteriorLights:Electricity:Zone:CB_CLASSROOM_7_F3 ZN,hourly; !- [J]
Output:Meter,General:InteriorLights:Electricity:Zone:CB_CLASSROOM_7_F3 ZN,hourly; !- [J]
Output:Meter:Cumulative,General:InteriorLights:Electricity:Zone:CB_CLASSROOM_7_F3 ZN,hourly; !- [J]
Output:Meter,Electricity:Zone:CB_CLASSROOM_8_F3 ZN,hourly; !- [J]
Output:Meter:Cumulative,Electricity:Zone:CB_CLASSROOM_8_F3 ZN,hourly; !- [J]
Output:Meter,InteriorLights:Electricity:Zone:CB_CLASSROOM_8_F3 ZN,hourly; !- [J]
Output:Meter:Cumulative,InteriorLights:Electricity:Zone:CB_CLASSROOM_8_F3 ZN,hourly; !- [J]
Output:Meter,General:InteriorLights:Electricity:Zone:CB_CLASSROOM_8_F3 ZN,hourly; !- [J]
Output:Meter:Cumulative,General:InteriorLights:Electricity:Zone:CB_CLASSROOM_8_F3 ZN,hourly; !- [J]
Output:Meter,Electricity:Zone:CB_CLASSROOM_4_F4 ZN,hourly; !- [J]
Output:Meter:Cumulative,Electricity:Zone:CB_CLASSROOM_4_F4 ZN,hourly; !- [J]
Output:Meter,InteriorLights:Electricity:Zone:CB_CLASSROOM_4_F4 ZN,hourly; !- [J]
Output:Meter:Cumulative,InteriorLights:Electricity:Zone:CB_CLASSROOM_4_F4 ZN,hourly; !- [J]
Output:Meter,General:InteriorLights:Electricity:Zone:CB_CLASSROOM_4_F4 ZN,hourly; !- [J]
Output:Meter:Cumulative,General:InteriorLights:Electricity:Zone:CB_CLASSROOM_4_F4 ZN,hourly; !- [J]
Output:Meter,Electricity:Zone:CB_CLASSROOM_4_F2 ZN,hourly; !- [J]
Output:Meter:Cumulative,Electricity:Zone:CB_CLASSROOM_4_F2 ZN,hourly; !- [J]
Output:Meter,InteriorLights:Electricity:Zone:CB_CLASSROOM_4_F2 ZN,hourly; !- [J]
Output:Meter:Cumulative,InteriorLights:Electricity:Zone:CB_CLASSROOM_4_F2 ZN,hourly; !- [J]
Output:Meter,General:InteriorLights:Electricity:Zone:CB_CLASSROOM_4_F2 ZN,hourly; !- [J]
Output:Meter:Cumulative,General:InteriorLights:Electricity:Zone:CB_CLASSROOM_4_F2 ZN,hourly; !- [J]
Output:Meter,Electricity:Zone:CB_LECTURE_ROOM_2_F1 ZN,hourly; !- [J]
Output:Meter:Cumulative,Electricity:Zone:CB_LECTURE_ROOM_2_F1 ZN,hourly; !- [J]
Output:Meter,InteriorLights:Electricity:Zone:CB_LECTURE_ROOM_2_F1 ZN,hourly; !- [J]
Output:Meter:Cumulative,InteriorLights:Electricity:Zone:CB_LECTURE_ROOM_2_F1 ZN,hourly; !- [J]
Output:Meter,General:InteriorLights:Electricity:Zone:CB_LECTURE_ROOM_2_F1 ZN,hourly; !- [J]
Output:Meter:Cumulative,General:InteriorLights:Electricity:Zone:CB_LECTURE_ROOM_2_F1 ZN,hourly; !- [J]
Output:Meter,Electricity:Zone:CB_CLASSROOM_2_F2 ZN,hourly; !- [J]
Output:Meter:Cumulative,Electricity:Zone:CB_CLASSROOM_2_F2 ZN,hourly; !- [J]
Output:Meter,InteriorLights:Electricity:Zone:CB_CLASSROOM_2_F2 ZN,hourly; !- [J]
Output:Meter:Cumulative,InteriorLights:Electricity:Zone:CB_CLASSROOM_2_F2 ZN,hourly; !- [J]
Output:Meter,General:InteriorLights:Electricity:Zone:CB_CLASSROOM_2_F2 ZN,hourly; !- [J]
Output:Meter:Cumulative,General:InteriorLights:Electricity:Zone:CB_CLASSROOM_2_F2 ZN,hourly; !- [J]
Output:Meter,Electricity:Zone:CB_CLASSROOM_1_F2 ZN,hourly; !- [J]
Output:Meter:Cumulative,Electricity:Zone:CB_CLASSROOM_1_F2 ZN,hourly; !- [J]
Output:Meter,InteriorLights:Electricity:Zone:CB_CLASSROOM_1_F2 ZN,hourly; !- [J]
Output:Meter:Cumulative,InteriorLights:Electricity:Zone:CB_CLASSROOM_1_F2 ZN,hourly; !- [J]
Output:Meter,General:InteriorLights:Electricity:Zone:CB_CLASSROOM_1_F2 ZN,hourly; !- [J]
Output:Meter:Cumulative,General:InteriorLights:Electricity:Zone:CB_CLASSROOM_1_F2 ZN,hourly; !- [J]
Output:Meter,Electricity:Zone:CB_CLASSROOM_3_F2 ZN,hourly; !- [J]
Output:Meter:Cumulative,Electricity:Zone:CB_CLASSROOM_3_F2 ZN,hourly; !- [J]
Output:Meter,InteriorLights:Electricity:Zone:CB_CLASSROOM_3_F2 ZN,hourly; !- [J]
Output:Meter:Cumulative,InteriorLights:Electricity:Zone:CB_CLASSROOM_3_F2 ZN,hourly; !- [J]
Output:Meter,General:InteriorLights:Electricity:Zone:CB_CLASSROOM_3_F2 ZN,hourly; !- [J]
Output:Meter:Cumulative,General:InteriorLights:Electricity:Zone:CB_CLASSROOM_3_F2 ZN,hourly; !- [J]
Output:Meter,Electricity:Zone:CB_CONFERENCE_ROOM_F4 ZN,hourly; !- [J]
Output:Meter:Cumulative,Electricity:Zone:CB_CONFERENCE_ROOM_F4 ZN,hourly; !- [J]
Output:Meter,Electricity:SpaceType:COLLEGE - CONFERENCE,hourly; !- [J]
Output:Meter:Cumulative,Electricity:SpaceType:COLLEGE - CONFERENCE,hourly; !- [J]
Output:Meter,InteriorLights:Electricity:Zone:CB_CONFERENCE_ROOM_F4 ZN,hourly; !- [J]
Output:Meter:Cumulative,InteriorLights:Electricity:Zone:CB_CONFERENCE_ROOM_F4 ZN,hourly; !- [J]
Output:Meter,InteriorLights:Electricity:SpaceType:COLLEGE - CONFERENCE,hourly; !- [J]
Output:Meter:Cumulative,InteriorLights:Electricity:SpaceType:COLLEGE - CONFERENCE,hourly; !- [J]
Output:Meter,General:InteriorLights:Electricity:Zone:CB_CONFERENCE_ROOM_F4 ZN,hourly; !- [J]
Output:Meter:Cumulative,General:InteriorLights:Electricity:Zone:CB_CONFERENCE_ROOM_F4 ZN,hourly; !- [J]
Output:Meter,General:InteriorLights:Electricity:SpaceType:COLLEGE - CONFERENCE,hourly; !- [J]
Output:Meter:Cumulative,General:InteriorLights:Electricity:SpaceType:COLLEGE - CONFERENCE,hourly; !- [J]
Output:Meter,Electricity:Zone:CB_CONFERENCE_ROOM_F3 ZN,hourly; !- [J]
Output:Meter:Cumulative,Electricity:Zone:CB_CONFERENCE_ROOM_F3 ZN,hourly; !- [J]
Output:Meter,InteriorLights:Electricity:Zone:CB_CONFERENCE_ROOM_F3 ZN,hourly; !- [J]
Output:Meter:Cumulative,InteriorLights:Electricity:Zone:CB_CONFERENCE_ROOM_F3 ZN,hourly; !- [J]
Output:Meter,General:InteriorLights:Electricity:Zone:CB_CONFERENCE_ROOM_F3 ZN,hourly; !- [J]
Output:Meter:Cumulative,General:InteriorLights:Electricity:Zone:CB_CONFERENCE_ROOM_F3 ZN,hourly; !- [J]
Output:Meter,Electricity:Zone:CB_CONFERENCE_ROOM_F1 ZN,hourly; !- [J]
Output:Meter:Cumulative,Electricity:Zone:CB_CONFERENCE_ROOM_F1 ZN,hourly; !- [J]
Output:Meter,InteriorLights:Electricity:Zone:CB_CONFERENCE_ROOM_F1 ZN,hourly; !- [J]
Output:Meter:Cumulative,InteriorLights:Electricity:Zone:CB_CONFERENCE_ROOM_F1 ZN,hourly; !- [J]
Output:Meter,General:InteriorLights:Electricity:Zone:CB_CONFERENCE_ROOM_F1 ZN,hourly; !- [J]
Output:Meter:Cumulative,General:InteriorLights:Electricity:Zone:CB_CONFERENCE_ROOM_F1 ZN,hourly; !- [J]
Output:Meter,Electricity:Zone:CB_CONFERENCE_ROOM_F2 ZN,hourly; !- [J]
Output:Meter:Cumulative,Electricity:Zone:CB_CONFERENCE_ROOM_F2 ZN,hourly; !- [J]
Output:Meter,InteriorLights:Electricity:Zone:CB_CONFERENCE_ROOM_F2 ZN,hourly; !- [J]
Output:Meter:Cumulative,InteriorLights:Electricity:Zone:CB_CONFERENCE_ROOM_F2 ZN,hourly; !- [J]
Output:Meter,General:InteriorLights:Electricity:Zone:CB_CONFERENCE_ROOM_F2 ZN,hourly; !- [J]
Output:Meter:Cumulative,General:InteriorLights:Electricity:Zone:CB_CONFERENCE_ROOM_F2 ZN,hourly; !- [J]
Output:Meter,Electricity:Zone:CB_CORRIDOR_F1 ZN,hourly; !- [J]
Output:Meter:Cumulative,Electricity:Zone:CB_CORRIDOR_F1 ZN,hourly; !- [J]
Output:Meter,Electricity:SpaceType:COLLEGE - CORRIDOR,hourly; !- [J]
Output:Meter:Cumulative,Electricity:SpaceType:COLLEGE - CORRIDOR,hourly; !- [J]
Output:Meter,InteriorLights:Electricity:Zone:CB_CORRIDOR_F1 ZN,hourly; !- [J]
Output:Meter:Cumulative,InteriorLights:Electricity:Zone:CB_CORRIDOR_F1 ZN,hourly; !- [J]
Output:Meter,InteriorLights:Electricity:SpaceType:COLLEGE - CORRIDOR,hourly; !- [J]
Output:Meter:Cumulative,InteriorLights:Electricity:SpaceType:COLLEGE - CORRIDOR,hourly; !- [J]
Output:Meter,General:InteriorLights:Electricity:Zone:CB_CORRIDOR_F1 ZN,hourly; !- [J]
Output:Meter:Cumulative,General:InteriorLights:Electricity:Zone:CB_CORRIDOR_F1 ZN,hourly; !- [J]
Output:Meter,General:InteriorLights:Electricity:SpaceType:COLLEGE - CORRIDOR,hourly; !- [J]
Output:Meter:Cumulative,General:InteriorLights:Electricity:SpaceType:COLLEGE - CORRIDOR,hourly; !- [J]
Output:Meter,Electricity:Zone:CB_CORRIDOR_F4 ZN,hourly; !- [J]
Output:Meter:Cumulative,Electricity:Zone:CB_CORRIDOR_F4 ZN,hourly; !- [J]
Output:Meter,InteriorLights:Electricity:Zone:CB_CORRIDOR_F4 ZN,hourly; !- [J]
Output:Meter:Cumulative,InteriorLights:Electricity:Zone:CB_CORRIDOR_F4 ZN,hourly; !- [J]
Output:Meter,General:InteriorLights:Electricity:Zone:CB_CORRIDOR_F4 ZN,hourly; !- [J]
Output:Meter:Cumulative,General:InteriorLights:Electricity:Zone:CB_CORRIDOR_F4 ZN,hourly; !- [J]
Output:Meter,Electricity:Zone:CB_CORRIDOR_F2 ZN,hourly; !- [J]
Output:Meter:Cumulative,Electricity:Zone:CB_CORRIDOR_F2 ZN,hourly; !- [J]
Output:Meter,InteriorLights:Electricity:Zone:CB_CORRIDOR_F2 ZN,hourly; !- [J]
Output:Meter:Cumulative,InteriorLights:Electricity:Zone:CB_CORRIDOR_F2 ZN,hourly; !- [J]
Output:Meter,General:InteriorLights:Electricity:Zone:CB_CORRIDOR_F2 ZN,hourly; !- [J]
Output:Meter:Cumulative,General:InteriorLights:Electricity:Zone:CB_CORRIDOR_F2 ZN,hourly; !- [J]
Output:Meter,Electricity:Zone:CB_CORRIDOR_2_F3 ZN,hourly; !- [J]
Output:Meter:Cumulative,Electricity:Zone:CB_CORRIDOR_2_F3 ZN,hourly; !- [J]
Output:Meter,InteriorLights:Electricity:Zone:CB_CORRIDOR_2_F3 ZN,hourly; !- [J]
Output:Meter:Cumulative,InteriorLights:Electricity:Zone:CB_CORRIDOR_2_F3 ZN,hourly; !- [J]
Output:Meter,General:InteriorLights:Electricity:Zone:CB_CORRIDOR_2_F3 ZN,hourly; !- [J]
Output:Meter:Cumulative,General:InteriorLights:Electricity:Zone:CB_CORRIDOR_2_F3 ZN,hourly; !- [J]
Output:Meter,Electricity:Zone:CB_CORRIDOR_1_F3 ZN,hourly; !- [J]
Output:Meter:Cumulative,Electricity:Zone:CB_CORRIDOR_1_F3 ZN,hourly; !- [J]
Output:Meter,InteriorLights:Electricity:Zone:CB_CORRIDOR_1_F3 ZN,hourly; !- [J]
Output:Meter:Cumulative,InteriorLights:Electricity:Zone:CB_CORRIDOR_1_F3 ZN,hourly; !- [J]
Output:Meter,General:InteriorLights:Electricity:Zone:CB_CORRIDOR_1_F3 ZN,hourly; !- [J]
Output:Meter:Cumulative,General:InteriorLights:Electricity:Zone:CB_CORRIDOR_1_F3 ZN,hourly; !- [J]
Output:Meter,Electricity:Zone:CB_OFFICES_ENCLOSED_8_F1 ZN,hourly; !- [J]
Output:Meter:Cumulative,Electricity:Zone:CB_OFFICES_ENCLOSED_8_F1 ZN,hourly; !- [J]
Output:Meter,Electricity:SpaceType:COLLEGE - OFFICE,hourly; !- [J]
Output:Meter:Cumulative,Electricity:SpaceType:COLLEGE - OFFICE,hourly; !- [J]
Output:Meter,InteriorLights:Electricity:Zone:CB_OFFICES_ENCLOSED_8_F1 ZN,hourly; !- [J]
Output:Meter:Cumulative,InteriorLights:Electricity:Zone:CB_OFFICES_ENCLOSED_8_F1 ZN,hourly; !- [J]
Output:Meter,InteriorLights:Electricity:SpaceType:COLLEGE - OFFICE,hourly; !- [J]
Output:Meter:Cumulative,InteriorLights:Electricity:SpaceType:COLLEGE - OFFICE,hourly; !- [J]
Output:Meter,General:InteriorLights:Electricity:Zone:CB_OFFICES_ENCLOSED_8_F1 ZN,hourly; !- [J]
Output:Meter:Cumulative,General:InteriorLights:Electricity:Zone:CB_OFFICES_ENCLOSED_8_F1 ZN,hourly; !- [J]
Output:Meter,General:InteriorLights:Electricity:SpaceType:COLLEGE - OFFICE,hourly; !- [J]
Output:Meter:Cumulative,General:InteriorLights:Electricity:SpaceType:COLLEGE - OFFICE,hourly; !- [J]
Output:Meter,Electricity:Zone:CB_OFFICES_ENCLOSED_7_F1 ZN,hourly; !- [J]
Output:Meter:Cumulative,Electricity:Zone:CB_OFFICES_ENCLOSED_7_F1 ZN,hourly; !- [J]
Output:Meter,InteriorLights:Electricity:Zone:CB_OFFICES_ENCLOSED_7_F1 ZN,hourly; !- [J]
Output:Meter:Cumulative,InteriorLights:Electricity:Zone:CB_OFFICES_ENCLOSED_7_F1 ZN,hourly; !- [J]
Output:Meter,General:InteriorLights:Electricity:Zone:CB_OFFICES_ENCLOSED_7_F1 ZN,hourly; !- [J]
Output:Meter:Cumulative,General:InteriorLights:Electricity:Zone:CB_OFFICES_ENCLOSED_7_F1 ZN,hourly; !- [J]
Output:Meter,Electricity:Zone:CB_OFFICES_ENCLOSED_5_F1 ZN,hourly; !- [J]
Output:Meter:Cumulative,Electricity:Zone:CB_OFFICES_ENCLOSED_5_F1 ZN,hourly; !- [J]
Output:Meter,InteriorLights:Electricity:Zone:CB_OFFICES_ENCLOSED_5_F1 ZN,hourly; !- [J]
Output:Meter:Cumulative,InteriorLights:Electricity:Zone:CB_OFFICES_ENCLOSED_5_F1 ZN,hourly; !- [J]
Output:Meter,General:InteriorLights:Electricity:Zone:CB_OFFICES_ENCLOSED_5_F1 ZN,hourly; !- [J]
Output:Meter:Cumulative,General:InteriorLights:Electricity:Zone:CB_OFFICES_ENCLOSED_5_F1 ZN,hourly; !- [J]
Output:Meter,Electricity:Zone:CB_OFFICES_ENCLOSED_4_F1 ZN,hourly; !- [J]
Output:Meter:Cumulative,Electricity:Zone:CB_OFFICES_ENCLOSED_4_F1 ZN,hourly; !- [J]
Output:Meter,InteriorLights:Electricity:Zone:CB_OFFICES_ENCLOSED_4_F1 ZN,hourly; !- [J]
Output:Meter:Cumulative,InteriorLights:Electricity:Zone:CB_OFFICES_ENCLOSED_4_F1 ZN,hourly; !- [J]
Output:Meter,General:InteriorLights:Electricity:Zone:CB_OFFICES_ENCLOSED_4_F1 ZN,hourly; !- [J]
Output:Meter:Cumulative,General:InteriorLights:Electricity:Zone:CB_OFFICES_ENCLOSED_4_F1 ZN,hourly; !- [J]
Output:Meter,Electricity:Zone:CB_OFFICES_ENCLOSED_6_F1 ZN,hourly; !- [J]
Output:Meter:Cumulative,Electricity:Zone:CB_OFFICES_ENCLOSED_6_F1 ZN,hourly; !- [J]
Output:Meter,InteriorLights:Electricity:Zone:CB_OFFICES_ENCLOSED_6_F1 ZN,hourly; !- [J]
Output:Meter:Cumulative,InteriorLights:Electricity:Zone:CB_OFFICES_ENCLOSED_6_F1 ZN,hourly; !- [J]
Output:Meter,General:InteriorLights:Electricity:Zone:CB_OFFICES_ENCLOSED_6_F1 ZN,hourly; !- [J]
Output:Meter:Cumulative,General:InteriorLights:Electricity:Zone:CB_OFFICES_ENCLOSED_6_F1 ZN,hourly; !- [J]
Output:Meter,Electricity:Zone:CB_OFFICES_OPEN_F4 ZN,hourly; !- [J]
Output:Meter:Cumulative,Electricity:Zone:CB_OFFICES_OPEN_F4 ZN,hourly; !- [J]
Output:Meter,InteriorLights:Electricity:Zone:CB_OFFICES_OPEN_F4 ZN,hourly; !- [J]
Output:Meter:Cumulative,InteriorLights:Electricity:Zone:CB_OFFICES_OPEN_F4 ZN,hourly; !- [J]
Output:Meter,General:InteriorLights:Electricity:Zone:CB_OFFICES_OPEN_F4 ZN,hourly; !- [J]
Output:Meter:Cumulative,General:InteriorLights:Electricity:Zone:CB_OFFICES_OPEN_F4 ZN,hourly; !- [J]
Output:Meter,Electricity:Zone:CB_OFFICES_OPEN_F1 ZN,hourly; !- [J]
Output:Meter:Cumulative,Electricity:Zone:CB_OFFICES_OPEN_F1 ZN,hourly; !- [J]
Output:Meter,InteriorLights:Electricity:Zone:CB_OFFICES_OPEN_F1 ZN,hourly; !- [J]
Output:Meter:Cumulative,InteriorLights:Electricity:Zone:CB_OFFICES_OPEN_F1 ZN,hourly; !- [J]
Output:Meter,General:InteriorLights:Electricity:Zone:CB_OFFICES_OPEN_F1 ZN,hourly; !- [J]
Output:Meter:Cumulative,General:InteriorLights:Electricity:Zone:CB_OFFICES_OPEN_F1 ZN,hourly; !- [J]
Output:Meter,Electricity:Zone:CB_FACULTY_OFFICE_6_F4 ZN,hourly; !- [J]
Output:Meter:Cumulative,Electricity:Zone:CB_FACULTY_OFFICE_6_F4 ZN,hourly; !- [J]
Output:Meter,InteriorLights:Electricity:Zone:CB_FACULTY_OFFICE_6_F4 ZN,hourly; !- [J]
Output:Meter:Cumulative,InteriorLights:Electricity:Zone:CB_FACULTY_OFFICE_6_F4 ZN,hourly; !- [J]
Output:Meter,General:InteriorLights:Electricity:Zone:CB_FACULTY_OFFICE_6_F4 ZN,hourly; !- [J]
Output:Meter:Cumulative,General:InteriorLights:Electricity:Zone:CB_FACULTY_OFFICE_6_F4 ZN,hourly; !- [J]
Output:Meter,Electricity:Zone:CB_FACULTY_OFFICE_5_F4 ZN,hourly; !- [J]
Output:Meter:Cumulative,Electricity:Zone:CB_FACULTY_OFFICE_5_F4 ZN,hourly; !- [J]
Output:Meter,InteriorLights:Electricity:Zone:CB_FACULTY_OFFICE_5_F4 ZN,hourly; !- [J]
Output:Meter:Cumulative,InteriorLights:Electricity:Zone:CB_FACULTY_OFFICE_5_F4 ZN,hourly; !- [J]
Output:Meter,General:InteriorLights:Electricity:Zone:CB_FACULTY_OFFICE_5_F4 ZN,hourly; !- [J]
Output:Meter:Cumulative,General:InteriorLights:Electricity:Zone:CB_FACULTY_OFFICE_5_F4 ZN,hourly; !- [J]
Output:Meter,Electricity:Zone:CB_FACULTY_OFFICE_4_F4 ZN,hourly; !- [J]
Output:Meter:Cumulative,Electricity:Zone:CB_FACULTY_OFFICE_4_F4 ZN,hourly; !- [J]
Output:Meter,InteriorLights:Electricity:Zone:CB_FACULTY_OFFICE_4_F4 ZN,hourly; !- [J]
Output:Meter:Cumulative,InteriorLights:Electricity:Zone:CB_FACULTY_OFFICE_4_F4 ZN,hourly; !- [J]
Output:Meter,General:InteriorLights:Electricity:Zone:CB_FACULTY_OFFICE_4_F4 ZN,hourly; !- [J]
Output:Meter:Cumulative,General:InteriorLights:Electricity:Zone:CB_FACULTY_OFFICE_4_F4 ZN,hourly; !- [J]
Output:Meter,Electricity:Zone:CB_FACULTY_OFFICE_3_F4 ZN,hourly; !- [J]
Output:Meter:Cumulative,Electricity:Zone:CB_FACULTY_OFFICE_3_F4 ZN,hourly; !- [J]
Output:Meter,InteriorLights:Electricity:Zone:CB_FACULTY_OFFICE_3_F4 ZN,hourly; !- [J]
Output:Meter:Cumulative,InteriorLights:Electricity:Zone:CB_FACULTY_OFFICE_3_F4 ZN,hourly; !- [J]
Output:Meter,General:InteriorLights:Electricity:Zone:CB_FACULTY_OFFICE_3_F4 ZN,hourly; !- [J]
Output:Meter:Cumulative,General:InteriorLights:Electricity:Zone:CB_FACULTY_OFFICE_3_F4 ZN,hourly; !- [J]
Output:Meter,Electricity:Zone:CB_FACULTY_OFFICE_2_F4 ZN,hourly; !- [J]
Output:Meter:Cumulative,Electricity:Zone:CB_FACULTY_OFFICE_2_F4 ZN,hourly; !- [J]
Output:Meter,InteriorLights:Electricity:Zone:CB_FACULTY_OFFICE_2_F4 ZN,hourly; !- [J]
Output:Meter:Cumulative,InteriorLights:Electricity:Zone:CB_FACULTY_OFFICE_2_F4 ZN,hourly; !- [J]
Output:Meter,General:InteriorLights:Electricity:Zone:CB_FACULTY_OFFICE_2_F4 ZN,hourly; !- [J]
Output:Meter:Cumulative,General:InteriorLights:Electricity:Zone:CB_FACULTY_OFFICE_2_F4 ZN,hourly; !- [J]
Output:Meter,Electricity:Zone:CB_OFFICES_ENCLOSED_1_F1 ZN,hourly; !- [J]
Output:Meter:Cumulative,Electricity:Zone:CB_OFFICES_ENCLOSED_1_F1 ZN,hourly; !- [J]
Output:Meter,InteriorLights:Electricity:Zone:CB_OFFICES_ENCLOSED_1_F1 ZN,hourly; !- [J]
Output:Meter:Cumulative,InteriorLights:Electricity:Zone:CB_OFFICES_ENCLOSED_1_F1 ZN,hourly; !- [J]
Output:Meter,General:InteriorLights:Electricity:Zone:CB_OFFICES_ENCLOSED_1_F1 ZN,hourly; !- [J]
Output:Meter:Cumulative,General:InteriorLights:Electricity:Zone:CB_OFFICES_ENCLOSED_1_F1 ZN,hourly; !- [J]
Output:Meter,Electricity:Zone:CB_FACULTY_OFFICE_1_F4 ZN,hourly; !- [J]
Output:Meter:Cumulative,Electricity:Zone:CB_FACULTY_OFFICE_1_F4 ZN,hourly; !- [J]
Output:Meter,InteriorLights:Electricity:Zone:CB_FACULTY_OFFICE_1_F4 ZN,hourly; !- [J]
Output:Meter:Cumulative,InteriorLights:Electricity:Zone:CB_FACULTY_OFFICE_1_F4 ZN,hourly; !- [J]
Output:Meter,General:InteriorLights:Electricity:Zone:CB_FACULTY_OFFICE_1_F4 ZN,hourly; !- [J]
Output:Meter:Cumulative,General:InteriorLights:Electricity:Zone:CB_FACULTY_OFFICE_1_F4 ZN,hourly; !- [J]
Output:Meter,Electricity:Zone:CB_FACULTY_OFFICE_1_F3 ZN,hourly; !- [J]
Output:Meter:Cumulative,Electricity:Zone:CB_FACULTY_OFFICE_1_F3 ZN,hourly; !- [J]
Output:Meter,InteriorLights:Electricity:Zone:CB_FACULTY_OFFICE_1_F3 ZN,hourly; !- [J]
Output:Meter:Cumulative,InteriorLights:Electricity:Zone:CB_FACULTY_OFFICE_1_F3 ZN,hourly; !- [J]
Output:Meter,General:InteriorLights:Electricity:Zone:CB_FACULTY_OFFICE_1_F3 ZN,hourly; !- [J]
Output:Meter:Cumulative,General:InteriorLights:Electricity:Zone:CB_FACULTY_OFFICE_1_F3 ZN,hourly; !- [J]
Output:Meter,Electricity:Zone:CB_FACULTY_OFFICE_3_F2 ZN,hourly; !- [J]
Output:Meter:Cumulative,Electricity:Zone:CB_FACULTY_OFFICE_3_F2 ZN,hourly; !- [J]
Output:Meter,InteriorLights:Electricity:Zone:CB_FACULTY_OFFICE_3_F2 ZN,hourly; !- [J]
Output:Meter:Cumulative,InteriorLights:Electricity:Zone:CB_FACULTY_OFFICE_3_F2 ZN,hourly; !- [J]
Output:Meter,General:InteriorLights:Electricity:Zone:CB_FACULTY_OFFICE_3_F2 ZN,hourly; !- [J]
Output:Meter:Cumulative,General:InteriorLights:Electricity:Zone:CB_FACULTY_OFFICE_3_F2 ZN,hourly; !- [J]
Output:Meter,Electricity:Zone:CB_FACULTY_OFFICE_5_F3 ZN,hourly; !- [J]
Output:Meter:Cumulative,Electricity:Zone:CB_FACULTY_OFFICE_5_F3 ZN,hourly; !- [J]
Output:Meter,InteriorLights:Electricity:Zone:CB_FACULTY_OFFICE_5_F3 ZN,hourly; !- [J]
Output:Meter:Cumulative,InteriorLights:Electricity:Zone:CB_FACULTY_OFFICE_5_F3 ZN,hourly; !- [J]
Output:Meter,General:InteriorLights:Electricity:Zone:CB_FACULTY_OFFICE_5_F3 ZN,hourly; !- [J]
Output:Meter:Cumulative,General:InteriorLights:Electricity:Zone:CB_FACULTY_OFFICE_5_F3 ZN,hourly; !- [J]
Output:Meter,Electricity:Zone:CB_FACULTY_OFFICE_4_F3 ZN,hourly; !- [J]
Output:Meter:Cumulative,Electricity:Zone:CB_FACULTY_OFFICE_4_F3 ZN,hourly; !- [J]
Output:Meter,InteriorLights:Electricity:Zone:CB_FACULTY_OFFICE_4_F3 ZN,hourly; !- [J]
Output:Meter:Cumulative,InteriorLights:Electricity:Zone:CB_FACULTY_OFFICE_4_F3 ZN,hourly; !- [J]
Output:Meter,General:InteriorLights:Electricity:Zone:CB_FACULTY_OFFICE_4_F3 ZN,hourly; !- [J]
Output:Meter:Cumulative,General:InteriorLights:Electricity:Zone:CB_FACULTY_OFFICE_4_F3 ZN,hourly; !- [J]
Output:Meter,Electricity:Zone:CB_FACULTY_OFFICE_2_F3 ZN,hourly; !- [J]
Output:Meter:Cumulative,Electricity:Zone:CB_FACULTY_OFFICE_2_F3 ZN,hourly; !- [J]
Output:Meter,InteriorLights:Electricity:Zone:CB_FACULTY_OFFICE_2_F3 ZN,hourly; !- [J]
Output:Meter:Cumulative,InteriorLights:Electricity:Zone:CB_FACULTY_OFFICE_2_F3 ZN,hourly; !- [J]
Output:Meter,General:InteriorLights:Electricity:Zone:CB_FACULTY_OFFICE_2_F3 ZN,hourly; !- [J]
Output:Meter:Cumulative,General:InteriorLights:Electricity:Zone:CB_FACULTY_OFFICE_2_F3 ZN,hourly; !- [J]
Output:Meter,Electricity:Zone:CB_OFFICES_ENCLOSED_2_F1 ZN,hourly; !- [J]
Output:Meter:Cumulative,Electricity:Zone:CB_OFFICES_ENCLOSED_2_F1 ZN,hourly; !- [J]
Output:Meter,InteriorLights:Electricity:Zone:CB_OFFICES_ENCLOSED_2_F1 ZN,hourly; !- [J]
Output:Meter:Cumulative,InteriorLights:Electricity:Zone:CB_OFFICES_ENCLOSED_2_F1 ZN,hourly; !- [J]
Output:Meter,General:InteriorLights:Electricity:Zone:CB_OFFICES_ENCLOSED_2_F1 ZN,hourly; !- [J]
Output:Meter:Cumulative,General:InteriorLights:Electricity:Zone:CB_OFFICES_ENCLOSED_2_F1 ZN,hourly; !- [J]
Output:Meter,Electricity:Zone:CB_FACULTY_OFFICE_3_F3 ZN,hourly; !- [J]
Output:Meter:Cumulative,Electricity:Zone:CB_FACULTY_OFFICE_3_F3 ZN,hourly; !- [J]
Output:Meter,InteriorLights:Electricity:Zone:CB_FACULTY_OFFICE_3_F3 ZN,hourly; !- [J]
Output:Meter:Cumulative,InteriorLights:Electricity:Zone:CB_FACULTY_OFFICE_3_F3 ZN,hourly; !- [J]
Output:Meter,General:InteriorLights:Electricity:Zone:CB_FACULTY_OFFICE_3_F3 ZN,hourly; !- [J]
Output:Meter:Cumulative,General:InteriorLights:Electricity:Zone:CB_FACULTY_OFFICE_3_F3 ZN,hourly; !- [J]
Output:Meter,Electricity:Zone:CB_FACULTY_OFFICE_8_F4 ZN,hourly; !- [J]
Output:Meter:Cumulative,Electricity:Zone:CB_FACULTY_OFFICE_8_F4 ZN,hourly; !- [J]
Output:Meter,InteriorLights:Electricity:Zone:CB_FACULTY_OFFICE_8_F4 ZN,hourly; !- [J]
Output:Meter:Cumulative,InteriorLights:Electricity:Zone:CB_FACULTY_OFFICE_8_F4 ZN,hourly; !- [J]
Output:Meter,General:InteriorLights:Electricity:Zone:CB_FACULTY_OFFICE_8_F4 ZN,hourly; !- [J]
Output:Meter:Cumulative,General:InteriorLights:Electricity:Zone:CB_FACULTY_OFFICE_8_F4 ZN,hourly; !- [J]
Output:Meter,Electricity:Zone:CB_FACULTY_OFFICE_8_F3 ZN,hourly; !- [J]
Output:Meter:Cumulative,Electricity:Zone:CB_FACULTY_OFFICE_8_F3 ZN,hourly; !- [J]
Output:Meter,InteriorLights:Electricity:Zone:CB_FACULTY_OFFICE_8_F3 ZN,hourly; !- [J]
Output:Meter:Cumulative,InteriorLights:Electricity:Zone:CB_FACULTY_OFFICE_8_F3 ZN,hourly; !- [J]
Output:Meter,General:InteriorLights:Electricity:Zone:CB_FACULTY_OFFICE_8_F3 ZN,hourly; !- [J]
Output:Meter:Cumulative,General:InteriorLights:Electricity:Zone:CB_FACULTY_OFFICE_8_F3 ZN,hourly; !- [J]
Output:Meter,Electricity:Zone:CB_FACULTY_OFFICE_7_F3 ZN,hourly; !- [J]
Output:Meter:Cumulative,Electricity:Zone:CB_FACULTY_OFFICE_7_F3 ZN,hourly; !- [J]
Output:Meter,InteriorLights:Electricity:Zone:CB_FACULTY_OFFICE_7_F3 ZN,hourly; !- [J]
Output:Meter:Cumulative,InteriorLights:Electricity:Zone:CB_FACULTY_OFFICE_7_F3 ZN,hourly; !- [J]
Output:Meter,General:InteriorLights:Electricity:Zone:CB_FACULTY_OFFICE_7_F3 ZN,hourly; !- [J]
Output:Meter:Cumulative,General:InteriorLights:Electricity:Zone:CB_FACULTY_OFFICE_7_F3 ZN,hourly; !- [J]
Output:Meter,Electricity:Zone:CB_OFFICES_ENCLOSED_3_F1 ZN,hourly; !- [J]
Output:Meter:Cumulative,Electricity:Zone:CB_OFFICES_ENCLOSED_3_F1 ZN,hourly; !- [J]
Output:Meter,InteriorLights:Electricity:Zone:CB_OFFICES_ENCLOSED_3_F1 ZN,hourly; !- [J]
Output:Meter:Cumulative,InteriorLights:Electricity:Zone:CB_OFFICES_ENCLOSED_3_F1 ZN,hourly; !- [J]
Output:Meter,General:InteriorLights:Electricity:Zone:CB_OFFICES_ENCLOSED_3_F1 ZN,hourly; !- [J]
Output:Meter:Cumulative,General:InteriorLights:Electricity:Zone:CB_OFFICES_ENCLOSED_3_F1 ZN,hourly; !- [J]
Output:Meter,Electricity:Zone:CB_FACULTY_OFFICE_6_F2 ZN,hourly; !- [J]
Output:Meter:Cumulative,Electricity:Zone:CB_FACULTY_OFFICE_6_F2 ZN,hourly; !- [J]
Output:Meter,InteriorLights:Electricity:Zone:CB_FACULTY_OFFICE_6_F2 ZN,hourly; !- [J]
Output:Meter:Cumulative,InteriorLights:Electricity:Zone:CB_FACULTY_OFFICE_6_F2 ZN,hourly; !- [J]
Output:Meter,General:InteriorLights:Electricity:Zone:CB_FACULTY_OFFICE_6_F2 ZN,hourly; !- [J]
Output:Meter:Cumulative,General:InteriorLights:Electricity:Zone:CB_FACULTY_OFFICE_6_F2 ZN,hourly; !- [J]
Output:Meter,Electricity:Zone:CB_FACULTY_OFFICE_6_F3 ZN,hourly; !- [J]
Output:Meter:Cumulative,Electricity:Zone:CB_FACULTY_OFFICE_6_F3 ZN,hourly; !- [J]
Output:Meter,InteriorLights:Electricity:Zone:CB_FACULTY_OFFICE_6_F3 ZN,hourly; !- [J]
Output:Meter:Cumulative,InteriorLights:Electricity:Zone:CB_FACULTY_OFFICE_6_F3 ZN,hourly; !- [J]
Output:Meter,General:InteriorLights:Electricity:Zone:CB_FACULTY_OFFICE_6_F3 ZN,hourly; !- [J]
Output:Meter:Cumulative,General:InteriorLights:Electricity:Zone:CB_FACULTY_OFFICE_6_F3 ZN,hourly; !- [J]
Output:Meter,Electricity:Zone:CB_FACULTY_OFFICE_7_F2 ZN,hourly; !- [J]
Output:Meter:Cumulative,Electricity:Zone:CB_FACULTY_OFFICE_7_F2 ZN,hourly; !- [J]
Output:Meter,InteriorLights:Electricity:Zone:CB_FACULTY_OFFICE_7_F2 ZN,hourly; !- [J]
Output:Meter:Cumulative,InteriorLights:Electricity:Zone:CB_FACULTY_OFFICE_7_F2 ZN,hourly; !- [J]
Output:Meter,General:InteriorLights:Electricity:Zone:CB_FACULTY_OFFICE_7_F2 ZN,hourly; !- [J]
Output:Meter:Cumulative,General:InteriorLights:Electricity:Zone:CB_FACULTY_OFFICE_7_F2 ZN,hourly; !- [J]
Output:Meter,Electricity:Zone:CB_FACULTY_OFFICE_7_F4 ZN,hourly; !- [J]
Output:Meter:Cumulative,Electricity:Zone:CB_FACULTY_OFFICE_7_F4 ZN,hourly; !- [J]
Output:Meter,InteriorLights:Electricity:Zone:CB_FACULTY_OFFICE_7_F4 ZN,hourly; !- [J]
Output:Meter:Cumulative,InteriorLights:Electricity:Zone:CB_FACULTY_OFFICE_7_F4 ZN,hourly; !- [J]
Output:Meter,General:InteriorLights:Electricity:Zone:CB_FACULTY_OFFICE_7_F4 ZN,hourly; !- [J]
Output:Meter:Cumulative,General:InteriorLights:Electricity:Zone:CB_FACULTY_OFFICE_7_F4 ZN,hourly; !- [J]
Output:Meter,Electricity:Zone:CB_FACULTY_OFFICE_8_F2 ZN,hourly; !- [J]
Output:Meter:Cumulative,Electricity:Zone:CB_FACULTY_OFFICE_8_F2 ZN,hourly; !- [J]
Output:Meter,InteriorLights:Electricity:Zone:CB_FACULTY_OFFICE_8_F2 ZN,hourly; !- [J]
Output:Meter:Cumulative,InteriorLights:Electricity:Zone:CB_FACULTY_OFFICE_8_F2 ZN,hourly; !- [J]
Output:Meter,General:InteriorLights:Electricity:Zone:CB_FACULTY_OFFICE_8_F2 ZN,hourly; !- [J]
Output:Meter:Cumulative,General:InteriorLights:Electricity:Zone:CB_FACULTY_OFFICE_8_F2 ZN,hourly; !- [J]
Output:Meter,Electricity:Zone:CB_FACULTY_OFFICE_2_F2 ZN,hourly; !- [J]
Output:Meter:Cumulative,Electricity:Zone:CB_FACULTY_OFFICE_2_F2 ZN,hourly; !- [J]
Output:Meter,InteriorLights:Electricity:Zone:CB_FACULTY_OFFICE_2_F2 ZN,hourly; !- [J]
Output:Meter:Cumulative,InteriorLights:Electricity:Zone:CB_FACULTY_OFFICE_2_F2 ZN,hourly; !- [J]
Output:Meter,General:InteriorLights:Electricity:Zone:CB_FACULTY_OFFICE_2_F2 ZN,hourly; !- [J]
Output:Meter:Cumulative,General:InteriorLights:Electricity:Zone:CB_FACULTY_OFFICE_2_F2 ZN,hourly; !- [J]
Output:Meter,Electricity:Zone:CB_OFFICES_OPEN_F3 ZN,hourly; !- [J]
Output:Meter:Cumulative,Electricity:Zone:CB_OFFICES_OPEN_F3 ZN,hourly; !- [J]
Output:Meter,InteriorLights:Electricity:Zone:CB_OFFICES_OPEN_F3 ZN,hourly; !- [J]
Output:Meter:Cumulative,InteriorLights:Electricity:Zone:CB_OFFICES_OPEN_F3 ZN,hourly; !- [J]
Output:Meter,General:InteriorLights:Electricity:Zone:CB_OFFICES_OPEN_F3 ZN,hourly; !- [J]
Output:Meter:Cumulative,General:InteriorLights:Electricity:Zone:CB_OFFICES_OPEN_F3 ZN,hourly; !- [J]
Output:Meter,Electricity:Zone:CB_FACULTY_OFFICE_4_F2 ZN,hourly; !- [J]
Output:Meter:Cumulative,Electricity:Zone:CB_FACULTY_OFFICE_4_F2 ZN,hourly; !- [J]
Output:Meter,InteriorLights:Electricity:Zone:CB_FACULTY_OFFICE_4_F2 ZN,hourly; !- [J]
Output:Meter:Cumulative,InteriorLights:Electricity:Zone:CB_FACULTY_OFFICE_4_F2 ZN,hourly; !- [J]
Output:Meter,General:InteriorLights:Electricity:Zone:CB_FACULTY_OFFICE_4_F2 ZN,hourly; !- [J]
Output:Meter:Cumulative,General:InteriorLights:Electricity:Zone:CB_FACULTY_OFFICE_4_F2 ZN,hourly; !- [J]
Output:Meter,Electricity:Zone:CB_OFFICES_OPEN_F2 ZN,hourly; !- [J]
Output:Meter:Cumulative,Electricity:Zone:CB_OFFICES_OPEN_F2 ZN,hourly; !- [J]
Output:Meter,InteriorLights:Electricity:Zone:CB_OFFICES_OPEN_F2 ZN,hourly; !- [J]
Output:Meter:Cumulative,InteriorLights:Electricity:Zone:CB_OFFICES_OPEN_F2 ZN,hourly; !- [J]
Output:Meter,General:InteriorLights:Electricity:Zone:CB_OFFICES_OPEN_F2 ZN,hourly; !- [J]
Output:Meter:Cumulative,General:InteriorLights:Electricity:Zone:CB_OFFICES_OPEN_F2 ZN,hourly; !- [J]
Output:Meter,Electricity:Zone:CB_FACULTY_OFFICE_5_F2 ZN,hourly; !- [J]
Output:Meter:Cumulative,Electricity:Zone:CB_FACULTY_OFFICE_5_F2 ZN,hourly; !- [J]
Output:Meter,InteriorLights:Electricity:Zone:CB_FACULTY_OFFICE_5_F2 ZN,hourly; !- [J]
Output:Meter:Cumulative,InteriorLights:Electricity:Zone:CB_FACULTY_OFFICE_5_F2 ZN,hourly; !- [J]
Output:Meter,General:InteriorLights:Electricity:Zone:CB_FACULTY_OFFICE_5_F2 ZN,hourly; !- [J]
Output:Meter:Cumulative,General:InteriorLights:Electricity:Zone:CB_FACULTY_OFFICE_5_F2 ZN,hourly; !- [J]
Output:Meter,Electricity:Zone:CB_FACULTY_OFFICE_1_F2 ZN,hourly; !- [J]
Output:Meter:Cumulative,Electricity:Zone:CB_FACULTY_OFFICE_1_F2 ZN,hourly; !- [J]
Output:Meter,InteriorLights:Electricity:Zone:CB_FACULTY_OFFICE_1_F2 ZN,hourly; !- [J]
Output:Meter:Cumulative,InteriorLights:Electricity:Zone:CB_FACULTY_OFFICE_1_F2 ZN,hourly; !- [J]
Output:Meter,General:InteriorLights:Electricity:Zone:CB_FACULTY_OFFICE_1_F2 ZN,hourly; !- [J]
Output:Meter:Cumulative,General:InteriorLights:Electricity:Zone:CB_FACULTY_OFFICE_1_F2 ZN,hourly; !- [J]
Output:Meter,Electricity:Zone:CB_STUDENTS_RESTROOMS_1_F1 ZN,hourly; !- [J]
Output:Meter:Cumulative,Electricity:Zone:CB_STUDENTS_RESTROOMS_1_F1 ZN,hourly; !- [J]
Output:Meter,Electricity:SpaceType:COLLEGE - RESTROOM,hourly; !- [J]
Output:Meter:Cumulative,Electricity:SpaceType:COLLEGE - RESTROOM,hourly; !- [J]
Output:Meter,InteriorLights:Electricity:Zone:CB_STUDENTS_RESTROOMS_1_F1 ZN,hourly; !- [J]
Output:Meter:Cumulative,InteriorLights:Electricity:Zone:CB_STUDENTS_RESTROOMS_1_F1 ZN,hourly; !- [J]
Output:Meter,InteriorLights:Electricity:SpaceType:COLLEGE - RESTROOM,hourly; !- [J]
Output:Meter:Cumulative,InteriorLights:Electricity:SpaceType:COLLEGE - RESTROOM,hourly; !- [J]
Output:Meter,General:InteriorLights:Electricity:Zone:CB_STUDENTS_RESTROOMS_1_F1 ZN,hourly; !- [J]
Output:Meter:Cumulative,General:InteriorLights:Electricity:Zone:CB_STUDENTS_RESTROOMS_1_F1 ZN,hourly; !- [J]
Output:Meter,General:InteriorLights:Electricity:SpaceType:COLLEGE - RESTROOM,hourly; !- [J]
Output:Meter:Cumulative,General:InteriorLights:Electricity:SpaceType:COLLEGE - RESTROOM,hourly; !- [J]
Output:Meter,Electricity:Zone:CB_STAFF_RESTROOMS_1_F1 ZN,hourly; !- [J]
Output:Meter:Cumulative,Electricity:Zone:CB_STAFF_RESTROOMS_1_F1 ZN,hourly; !- [J]
Output:Meter,InteriorLights:Electricity:Zone:CB_STAFF_RESTROOMS_1_F1 ZN,hourly; !- [J]
Output:Meter:Cumulative,InteriorLights:Electricity:Zone:CB_STAFF_RESTROOMS_1_F1 ZN,hourly; !- [J]
Output:Meter,General:InteriorLights:Electricity:Zone:CB_STAFF_RESTROOMS_1_F1 ZN,hourly; !- [J]
Output:Meter:Cumulative,General:InteriorLights:Electricity:Zone:CB_STAFF_RESTROOMS_1_F1 ZN,hourly; !- [J]
Output:Meter,Electricity:Zone:CB_FACULTY_RESTROOMS_2_F4 ZN,hourly; !- [J]
Output:Meter:Cumulative,Electricity:Zone:CB_FACULTY_RESTROOMS_2_F4 ZN,hourly; !- [J]
Output:Meter,InteriorLights:Electricity:Zone:CB_FACULTY_RESTROOMS_2_F4 ZN,hourly; !- [J]
Output:Meter:Cumulative,InteriorLights:Electricity:Zone:CB_FACULTY_RESTROOMS_2_F4 ZN,hourly; !- [J]
Output:Meter,General:InteriorLights:Electricity:Zone:CB_FACULTY_RESTROOMS_2_F4 ZN,hourly; !- [J]
Output:Meter:Cumulative,General:InteriorLights:Electricity:Zone:CB_FACULTY_RESTROOMS_2_F4 ZN,hourly; !- [J]
Output:Meter,Electricity:Zone:CB_STUDENTS_RESTROOMS_1_F4 ZN,hourly; !- [J]
Output:Meter:Cumulative,Electricity:Zone:CB_STUDENTS_RESTROOMS_1_F4 ZN,hourly; !- [J]
Output:Meter,InteriorLights:Electricity:Zone:CB_STUDENTS_RESTROOMS_1_F4 ZN,hourly; !- [J]
Output:Meter:Cumulative,InteriorLights:Electricity:Zone:CB_STUDENTS_RESTROOMS_1_F4 ZN,hourly; !- [J]
Output:Meter,General:InteriorLights:Electricity:Zone:CB_STUDENTS_RESTROOMS_1_F4 ZN,hourly; !- [J]
Output:Meter:Cumulative,General:InteriorLights:Electricity:Zone:CB_STUDENTS_RESTROOMS_1_F4 ZN,hourly; !- [J]
Output:Meter,Electricity:Zone:CB_STUDENTS_RESTROOMS_2_F4 ZN,hourly; !- [J]
Output:Meter:Cumulative,Electricity:Zone:CB_STUDENTS_RESTROOMS_2_F4 ZN,hourly; !- [J]
Output:Meter,InteriorLights:Electricity:Zone:CB_STUDENTS_RESTROOMS_2_F4 ZN,hourly; !- [J]
Output:Meter:Cumulative,InteriorLights:Electricity:Zone:CB_STUDENTS_RESTROOMS_2_F4 ZN,hourly; !- [J]
Output:Meter,General:InteriorLights:Electricity:Zone:CB_STUDENTS_RESTROOMS_2_F4 ZN,hourly; !- [J]
Output:Meter:Cumulative,General:InteriorLights:Electricity:Zone:CB_STUDENTS_RESTROOMS_2_F4 ZN,hourly; !- [J]
Output:Meter,Electricity:Zone:CB_FACULTY_RESTROOMS_1_F4 ZN,hourly; !- [J]
Output:Meter:Cumulative,Electricity:Zone:CB_FACULTY_RESTROOMS_1_F4 ZN,hourly; !- [J]
Output:Meter,InteriorLights:Electricity:Zone:CB_FACULTY_RESTROOMS_1_F4 ZN,hourly; !- [J]
Output:Meter:Cumulative,InteriorLights:Electricity:Zone:CB_FACULTY_RESTROOMS_1_F4 ZN,hourly; !- [J]
Output:Meter,General:InteriorLights:Electricity:Zone:CB_FACULTY_RESTROOMS_1_F4 ZN,hourly; !- [J]
Output:Meter:Cumulative,General:InteriorLights:Electricity:Zone:CB_FACULTY_RESTROOMS_1_F4 ZN,hourly; !- [J]
Output:Meter,Electricity:Zone:CB_STUDENTS_RESTROOMS_1_F3 ZN,hourly; !- [J]
Output:Meter:Cumulative,Electricity:Zone:CB_STUDENTS_RESTROOMS_1_F3 ZN,hourly; !- [J]
Output:Meter,InteriorLights:Electricity:Zone:CB_STUDENTS_RESTROOMS_1_F3 ZN,hourly; !- [J]
Output:Meter:Cumulative,InteriorLights:Electricity:Zone:CB_STUDENTS_RESTROOMS_1_F3 ZN,hourly; !- [J]
Output:Meter,General:InteriorLights:Electricity:Zone:CB_STUDENTS_RESTROOMS_1_F3 ZN,hourly; !- [J]
Output:Meter:Cumulative,General:InteriorLights:Electricity:Zone:CB_STUDENTS_RESTROOMS_1_F3 ZN,hourly; !- [J]
Output:Meter,Electricity:Zone:CB_FACULTY_RESTROOMS_1_F3 ZN,hourly; !- [J]
Output:Meter:Cumulative,Electricity:Zone:CB_FACULTY_RESTROOMS_1_F3 ZN,hourly; !- [J]
Output:Meter,InteriorLights:Electricity:Zone:CB_FACULTY_RESTROOMS_1_F3 ZN,hourly; !- [J]
Output:Meter:Cumulative,InteriorLights:Electricity:Zone:CB_FACULTY_RESTROOMS_1_F3 ZN,hourly; !- [J]
Output:Meter,General:InteriorLights:Electricity:Zone:CB_FACULTY_RESTROOMS_1_F3 ZN,hourly; !- [J]
Output:Meter:Cumulative,General:InteriorLights:Electricity:Zone:CB_FACULTY_RESTROOMS_1_F3 ZN,hourly; !- [J]
Output:Meter,Electricity:Zone:CB_STUDENTS_RESTROOMS_2_F3 ZN,hourly; !- [J]
Output:Meter:Cumulative,Electricity:Zone:CB_STUDENTS_RESTROOMS_2_F3 ZN,hourly; !- [J]
Output:Meter,InteriorLights:Electricity:Zone:CB_STUDENTS_RESTROOMS_2_F3 ZN,hourly; !- [J]
Output:Meter:Cumulative,InteriorLights:Electricity:Zone:CB_STUDENTS_RESTROOMS_2_F3 ZN,hourly; !- [J]
Output:Meter,General:InteriorLights:Electricity:Zone:CB_STUDENTS_RESTROOMS_2_F3 ZN,hourly; !- [J]
Output:Meter:Cumulative,General:InteriorLights:Electricity:Zone:CB_STUDENTS_RESTROOMS_2_F3 ZN,hourly; !- [J]
Output:Meter,Electricity:Zone:CB_FACULTY_RESTROOMS_2_F3 ZN,hourly; !- [J]
Output:Meter:Cumulative,Electricity:Zone:CB_FACULTY_RESTROOMS_2_F3 ZN,hourly; !- [J]
Output:Meter,InteriorLights:Electricity:Zone:CB_FACULTY_RESTROOMS_2_F3 ZN,hourly; !- [J]
Output:Meter:Cumulative,InteriorLights:Electricity:Zone:CB_FACULTY_RESTROOMS_2_F3 ZN,hourly; !- [J]
Output:Meter,General:InteriorLights:Electricity:Zone:CB_FACULTY_RESTROOMS_2_F3 ZN,hourly; !- [J]
Output:Meter:Cumulative,General:InteriorLights:Electricity:Zone:CB_FACULTY_RESTROOMS_2_F3 ZN,hourly; !- [J]
Output:Meter,Electricity:Zone:CB_STAFF_RESTROOMS_2_F1 ZN,hourly; !- [J]
Output:Meter:Cumulative,Electricity:Zone:CB_STAFF_RESTROOMS_2_F1 ZN,hourly; !- [J]
Output:Meter,InteriorLights:Electricity:Zone:CB_STAFF_RESTROOMS_2_F1 ZN,hourly; !- [J]
Output:Meter:Cumulative,InteriorLights:Electricity:Zone:CB_STAFF_RESTROOMS_2_F1 ZN,hourly; !- [J]
Output:Meter,General:InteriorLights:Electricity:Zone:CB_STAFF_RESTROOMS_2_F1 ZN,hourly; !- [J]
Output:Meter:Cumulative,General:InteriorLights:Electricity:Zone:CB_STAFF_RESTROOMS_2_F1 ZN,hourly; !- [J]
Output:Meter,Electricity:Zone:CB_FACULTY_RESTROOMS_2_F2 ZN,hourly; !- [J]
Output:Meter:Cumulative,Electricity:Zone:CB_FACULTY_RESTROOMS_2_F2 ZN,hourly; !- [J]
Output:Meter,InteriorLights:Electricity:Zone:CB_FACULTY_RESTROOMS_2_F2 ZN,hourly; !- [J]
Output:Meter:Cumulative,InteriorLights:Electricity:Zone:CB_FACULTY_RESTROOMS_2_F2 ZN,hourly; !- [J]
Output:Meter,General:InteriorLights:Electricity:Zone:CB_FACULTY_RESTROOMS_2_F2 ZN,hourly; !- [J]
Output:Meter:Cumulative,General:InteriorLights:Electricity:Zone:CB_FACULTY_RESTROOMS_2_F2 ZN,hourly; !- [J]
Output:Meter,Electricity:Zone:CB_FACULTY_RESTROOMS_1_F2 ZN,hourly; !- [J]
Output:Meter:Cumulative,Electricity:Zone:CB_FACULTY_RESTROOMS_1_F2 ZN,hourly; !- [J]
Output:Meter,InteriorLights:Electricity:Zone:CB_FACULTY_RESTROOMS_1_F2 ZN,hourly; !- [J]
Output:Meter:Cumulative,InteriorLights:Electricity:Zone:CB_FACULTY_RESTROOMS_1_F2 ZN,hourly; !- [J]
Output:Meter,General:InteriorLights:Electricity:Zone:CB_FACULTY_RESTROOMS_1_F2 ZN,hourly; !- [J]
Output:Meter:Cumulative,General:InteriorLights:Electricity:Zone:CB_FACULTY_RESTROOMS_1_F2 ZN,hourly; !- [J]
Output:Meter,Electricity:Zone:CB_STUDENTS_RESTROOMS_2_F1 ZN,hourly; !- [J]
Output:Meter:Cumulative,Electricity:Zone:CB_STUDENTS_RESTROOMS_2_F1 ZN,hourly; !- [J]
Output:Meter,InteriorLights:Electricity:Zone:CB_STUDENTS_RESTROOMS_2_F1 ZN,hourly; !- [J]
Output:Meter:Cumulative,InteriorLights:Electricity:Zone:CB_STUDENTS_RESTROOMS_2_F1 ZN,hourly; !- [J]
Output:Meter,General:InteriorLights:Electricity:Zone:CB_STUDENTS_RESTROOMS_2_F1 ZN,hourly; !- [J]
Output:Meter:Cumulative,General:InteriorLights:Electricity:Zone:CB_STUDENTS_RESTROOMS_2_F1 ZN,hourly; !- [J]
Output:Meter,Electricity:Zone:CB_STUDENTS_RESTROOMS_2_F2 ZN,hourly; !- [J]
Output:Meter:Cumulative,Electricity:Zone:CB_STUDENTS_RESTROOMS_2_F2 ZN,hourly; !- [J]
Output:Meter,InteriorLights:Electricity:Zone:CB_STUDENTS_RESTROOMS_2_F2 ZN,hourly; !- [J]
Output:Meter:Cumulative,InteriorLights:Electricity:Zone:CB_STUDENTS_RESTROOMS_2_F2 ZN,hourly; !- [J]
Output:Meter,General:InteriorLights:Electricity:Zone:CB_STUDENTS_RESTROOMS_2_F2 ZN,hourly; !- [J]
Output:Meter:Cumulative,General:InteriorLights:Electricity:Zone:CB_STUDENTS_RESTROOMS_2_F2 ZN,hourly; !- [J]
Output:Meter,Electricity:Zone:CB_STUDENTS_RESTROOMS_1_F2 ZN,hourly; !- [J]
Output:Meter:Cumulative,Electricity:Zone:CB_STUDENTS_RESTROOMS_1_F2 ZN,hourly; !- [J]
Output:Meter,InteriorLights:Electricity:Zone:CB_STUDENTS_RESTROOMS_1_F2 ZN,hourly; !- [J]
Output:Meter:Cumulative,InteriorLights:Electricity:Zone:CB_STUDENTS_RESTROOMS_1_F2 ZN,hourly; !- [J]
Output:Meter,General:InteriorLights:Electricity:Zone:CB_STUDENTS_RESTROOMS_1_F2 ZN,hourly; !- [J]
Output:Meter:Cumulative,General:InteriorLights:Electricity:Zone:CB_STUDENTS_RESTROOMS_1_F2 ZN,hourly; !- [J]
Output:Meter,Electricity:Zone:CB_LAB_3_F4 ZN,hourly; !- [J]
Output:Meter:Cumulative,Electricity:Zone:CB_LAB_3_F4 ZN,hourly; !- [J]
Output:Meter,Electricity:SpaceType:COLLEGE - LABORATORY,hourly; !- [J]
Output:Meter:Cumulative,Electricity:SpaceType:COLLEGE - LABORATORY,hourly; !- [J]
Output:Meter,InteriorLights:Electricity:Zone:CB_LAB_3_F4 ZN,hourly; !- [J]
Output:Meter:Cumulative,InteriorLights:Electricity:Zone:CB_LAB_3_F4 ZN,hourly; !- [J]
Output:Meter,InteriorLights:Electricity:SpaceType:COLLEGE - LABORATORY,hourly; !- [J]
Output:Meter:Cumulative,InteriorLights:Electricity:SpaceType:COLLEGE - LABORATORY,hourly; !- [J]
Output:Meter,General:InteriorLights:Electricity:Zone:CB_LAB_3_F4 ZN,hourly; !- [J]
Output:Meter:Cumulative,General:InteriorLights:Electricity:Zone:CB_LAB_3_F4 ZN,hourly; !- [J]
Output:Meter,General:InteriorLights:Electricity:SpaceType:COLLEGE - LABORATORY,hourly; !- [J]
Output:Meter:Cumulative,General:InteriorLights:Electricity:SpaceType:COLLEGE - LABORATORY,hourly; !- [J]
Output:Meter,Electricity:Zone:CB_LAB_4_F4 ZN,hourly; !- [J]
Output:Meter:Cumulative,Electricity:Zone:CB_LAB_4_F4 ZN,hourly; !- [J]
Output:Meter,InteriorLights:Electricity:Zone:CB_LAB_4_F4 ZN,hourly; !- [J]
Output:Meter:Cumulative,InteriorLights:Electricity:Zone:CB_LAB_4_F4 ZN,hourly; !- [J]
Output:Meter,General:InteriorLights:Electricity:Zone:CB_LAB_4_F4 ZN,hourly; !- [J]
Output:Meter:Cumulative,General:InteriorLights:Electricity:Zone:CB_LAB_4_F4 ZN,hourly; !- [J]
Output:Meter,Electricity:Zone:CB_LAB_1_F4 ZN,hourly; !- [J]
Output:Meter:Cumulative,Electricity:Zone:CB_LAB_1_F4 ZN,hourly; !- [J]
Output:Meter,InteriorLights:Electricity:Zone:CB_LAB_1_F4 ZN,hourly; !- [J]
Output:Meter:Cumulative,InteriorLights:Electricity:Zone:CB_LAB_1_F4 ZN,hourly; !- [J]
Output:Meter,General:InteriorLights:Electricity:Zone:CB_LAB_1_F4 ZN,hourly; !- [J]
Output:Meter:Cumulative,General:InteriorLights:Electricity:Zone:CB_LAB_1_F4 ZN,hourly; !- [J]
Output:Meter,Electricity:Zone:CB_LAB_2_F4 ZN,hourly; !- [J]
Output:Meter:Cumulative,Electricity:Zone:CB_LAB_2_F4 ZN,hourly; !- [J]
Output:Meter,InteriorLights:Electricity:Zone:CB_LAB_2_F4 ZN,hourly; !- [J]
Output:Meter:Cumulative,InteriorLights:Electricity:Zone:CB_LAB_2_F4 ZN,hourly; !- [J]
Output:Meter,General:InteriorLights:Electricity:Zone:CB_LAB_2_F4 ZN,hourly; !- [J]
Output:Meter:Cumulative,General:InteriorLights:Electricity:Zone:CB_LAB_2_F4 ZN,hourly; !- [J]
Output:Meter,Electricity:Zone:CB_LECTURE_ROOM_1_F1 ZN,hourly; !- [J]
Output:Meter:Cumulative,Electricity:Zone:CB_LECTURE_ROOM_1_F1 ZN,hourly; !- [J]
Output:Meter,Electricity:SpaceType:COLLEGE - LECTURE HALL,hourly; !- [J]
Output:Meter:Cumulative,Electricity:SpaceType:COLLEGE - LECTURE HALL,hourly; !- [J]
Output:Meter,InteriorLights:Electricity:Zone:CB_LECTURE_ROOM_1_F1 ZN,hourly; !- [J]
Output:Meter:Cumulative,InteriorLights:Electricity:Zone:CB_LECTURE_ROOM_1_F1 ZN,hourly; !- [J]
Output:Meter,InteriorLights:Electricity:SpaceType:COLLEGE - LECTURE HALL,hourly; !- [J]
Output:Meter:Cumulative,InteriorLights:Electricity:SpaceType:COLLEGE - LECTURE HALL,hourly; !- [J]
Output:Meter,General:InteriorLights:Electricity:Zone:CB_LECTURE_ROOM_1_F1 ZN,hourly; !- [J]
Output:Meter:Cumulative,General:InteriorLights:Electricity:Zone:CB_LECTURE_ROOM_1_F1 ZN,hourly; !- [J]
Output:Meter,General:InteriorLights:Electricity:SpaceType:COLLEGE - LECTURE HALL,hourly; !- [J]
Output:Meter:Cumulative,General:InteriorLights:Electricity:SpaceType:COLLEGE - LECTURE HALL,hourly; !- [J]
Output:Meter,Electricity:Zone:CB_LIBRARY_MEDIA_CENTER_F1 ZN,hourly; !- [J]
Output:Meter:Cumulative,Electricity:Zone:CB_LIBRARY_MEDIA_CENTER_F1 ZN,hourly; !- [J]
Output:Meter,Electricity:SpaceType:COLLEGE - MEDIA CENTER,hourly; !- [J]
Output:Meter:Cumulative,Electricity:SpaceType:COLLEGE - MEDIA CENTER,hourly; !- [J]
Output:Meter,InteriorLights:Electricity:Zone:CB_LIBRARY_MEDIA_CENTER_F1 ZN,hourly; !- [J]
Output:Meter:Cumulative,InteriorLights:Electricity:Zone:CB_LIBRARY_MEDIA_CENTER_F1 ZN,hourly; !- [J]
Output:Meter,InteriorLights:Electricity:SpaceType:COLLEGE - MEDIA CENTER,hourly; !- [J]
Output:Meter:Cumulative,InteriorLights:Electricity:SpaceType:COLLEGE - MEDIA CENTER,hourly; !- [J]
Output:Meter,General:InteriorLights:Electricity:Zone:CB_LIBRARY_MEDIA_CENTER_F1 ZN,hourly; !- [J]
Output:Meter:Cumulative,General:InteriorLights:Electricity:Zone:CB_LIBRARY_MEDIA_CENTER_F1 ZN,hourly; !- [J]
Output:Meter,General:InteriorLights:Electricity:SpaceType:COLLEGE - MEDIA CENTER,hourly; !- [J]
Output:Meter:Cumulative,General:InteriorLights:Electricity:SpaceType:COLLEGE - MEDIA CENTER,hourly; !- [J]
Output:Meter,Electricity:Zone:CB_MAIN_STAIRS_F4 ZN,hourly; !- [J]
Output:Meter:Cumulative,Electricity:Zone:CB_MAIN_STAIRS_F4 ZN,hourly; !- [J]
Output:Meter,Electricity:SpaceType:COLLEGE - STAIRS,hourly; !- [J]
Output:Meter:Cumulative,Electricity:SpaceType:COLLEGE - STAIRS,hourly; !- [J]
Output:Meter,InteriorLights:Electricity:Zone:CB_MAIN_STAIRS_F4 ZN,hourly; !- [J]
Output:Meter:Cumulative,InteriorLights:Electricity:Zone:CB_MAIN_STAIRS_F4 ZN,hourly; !- [J]
Output:Meter,InteriorLights:Electricity:SpaceType:COLLEGE - STAIRS,hourly; !- [J]
Output:Meter:Cumulative,InteriorLights:Electricity:SpaceType:COLLEGE - STAIRS,hourly; !- [J]
Output:Meter,General:InteriorLights:Electricity:Zone:CB_MAIN_STAIRS_F4 ZN,hourly; !- [J]
Output:Meter:Cumulative,General:InteriorLights:Electricity:Zone:CB_MAIN_STAIRS_F4 ZN,hourly; !- [J]
Output:Meter,General:InteriorLights:Electricity:SpaceType:COLLEGE - STAIRS,hourly; !- [J]
Output:Meter:Cumulative,General:InteriorLights:Electricity:SpaceType:COLLEGE - STAIRS,hourly; !- [J]
Output:Meter,Electricity:Zone:CB_SECONDARY_STAIRS_2_F4 ZN,hourly; !- [J]
Output:Meter:Cumulative,Electricity:Zone:CB_SECONDARY_STAIRS_2_F4 ZN,hourly; !- [J]
Output:Meter,InteriorLights:Electricity:Zone:CB_SECONDARY_STAIRS_2_F4 ZN,hourly; !- [J]
Output:Meter:Cumulative,InteriorLights:Electricity:Zone:CB_SECONDARY_STAIRS_2_F4 ZN,hourly; !- [J]
Output:Meter,General:InteriorLights:Electricity:Zone:CB_SECONDARY_STAIRS_2_F4 ZN,hourly; !- [J]
Output:Meter:Cumulative,General:InteriorLights:Electricity:Zone:CB_SECONDARY_STAIRS_2_F4 ZN,hourly; !- [J]
Output:Meter,Electricity:Zone:CB_SECONDARY_STAIRS_2_F1 ZN,hourly; !- [J]
Output:Meter:Cumulative,Electricity:Zone:CB_SECONDARY_STAIRS_2_F1 ZN,hourly; !- [J]
Output:Meter,InteriorLights:Electricity:Zone:CB_SECONDARY_STAIRS_2_F1 ZN,hourly; !- [J]
Output:Meter:Cumulative,InteriorLights:Electricity:Zone:CB_SECONDARY_STAIRS_2_F1 ZN,hourly; !- [J]
Output:Meter,General:InteriorLights:Electricity:Zone:CB_SECONDARY_STAIRS_2_F1 ZN,hourly; !- [J]
Output:Meter:Cumulative,General:InteriorLights:Electricity:Zone:CB_SECONDARY_STAIRS_2_F1 ZN,hourly; !- [J]
Output:Meter,Electricity:Zone:CB_SECONDARY_STAIRS_1_F4 ZN,hourly; !- [J]
Output:Meter:Cumulative,Electricity:Zone:CB_SECONDARY_STAIRS_1_F4 ZN,hourly; !- [J]
Output:Meter,InteriorLights:Electricity:Zone:CB_SECONDARY_STAIRS_1_F4 ZN,hourly; !- [J]
Output:Meter:Cumulative,InteriorLights:Electricity:Zone:CB_SECONDARY_STAIRS_1_F4 ZN,hourly; !- [J]
Output:Meter,General:InteriorLights:Electricity:Zone:CB_SECONDARY_STAIRS_1_F4 ZN,hourly; !- [J]
Output:Meter:Cumulative,General:InteriorLights:Electricity:Zone:CB_SECONDARY_STAIRS_1_F4 ZN,hourly; !- [J]
Output:Meter,Electricity:Zone:CB_MAIN_STAIRS_F3 ZN,hourly; !- [J]
Output:Meter:Cumulative,Electricity:Zone:CB_MAIN_STAIRS_F3 ZN,hourly; !- [J]
Output:Meter,InteriorLights:Electricity:Zone:CB_MAIN_STAIRS_F3 ZN,hourly; !- [J]
Output:Meter:Cumulative,InteriorLights:Electricity:Zone:CB_MAIN_STAIRS_F3 ZN,hourly; !- [J]
Output:Meter,General:InteriorLights:Electricity:Zone:CB_MAIN_STAIRS_F3 ZN,hourly; !- [J]
Output:Meter:Cumulative,General:InteriorLights:Electricity:Zone:CB_MAIN_STAIRS_F3 ZN,hourly; !- [J]
Output:Meter,Electricity:Zone:CB_MAIN_STAIRS_F2 ZN,hourly; !- [J]
Output:Meter:Cumulative,Electricity:Zone:CB_MAIN_STAIRS_F2 ZN,hourly; !- [J]
Output:Meter,InteriorLights:Electricity:Zone:CB_MAIN_STAIRS_F2 ZN,hourly; !- [J]
Output:Meter:Cumulative,InteriorLights:Electricity:Zone:CB_MAIN_STAIRS_F2 ZN,hourly; !- [J]
Output:Meter,General:InteriorLights:Electricity:Zone:CB_MAIN_STAIRS_F2 ZN,hourly; !- [J]
Output:Meter:Cumulative,General:InteriorLights:Electricity:Zone:CB_MAIN_STAIRS_F2 ZN,hourly; !- [J]
Output:Meter,Electricity:Zone:CB_SECONDARY_STAIRS_2_F2 ZN,hourly; !- [J]
Output:Meter:Cumulative,Electricity:Zone:CB_SECONDARY_STAIRS_2_F2 ZN,hourly; !- [J]
Output:Meter,InteriorLights:Electricity:Zone:CB_SECONDARY_STAIRS_2_F2 ZN,hourly; !- [J]
Output:Meter:Cumulative,InteriorLights:Electricity:Zone:CB_SECONDARY_STAIRS_2_F2 ZN,hourly; !- [J]
Output:Meter,General:InteriorLights:Electricity:Zone:CB_SECONDARY_STAIRS_2_F2 ZN,hourly; !- [J]
Output:Meter:Cumulative,General:InteriorLights:Electricity:Zone:CB_SECONDARY_STAIRS_2_F2 ZN,hourly; !- [J]
Output:Meter,Electricity:Zone:CB_SECONDARY_STAIRS_2_F3 ZN,hourly; !- [J]
Output:Meter:Cumulative,Electricity:Zone:CB_SECONDARY_STAIRS_2_F3 ZN,hourly; !- [J]
Output:Meter,InteriorLights:Electricity:Zone:CB_SECONDARY_STAIRS_2_F3 ZN,hourly; !- [J]
Output:Meter:Cumulative,InteriorLights:Electricity:Zone:CB_SECONDARY_STAIRS_2_F3 ZN,hourly; !- [J]
Output:Meter,General:InteriorLights:Electricity:Zone:CB_SECONDARY_STAIRS_2_F3 ZN,hourly; !- [J]
Output:Meter:Cumulative,General:InteriorLights:Electricity:Zone:CB_SECONDARY_STAIRS_2_F3 ZN,hourly; !- [J]
Output:Meter,Electricity:Zone:CB_SECONDARY_STAIRS_1_F1 ZN,hourly; !- [J]
Output:Meter:Cumulative,Electricity:Zone:CB_SECONDARY_STAIRS_1_F1 ZN,hourly; !- [J]
Output:Meter,InteriorLights:Electricity:Zone:CB_SECONDARY_STAIRS_1_F1 ZN,hourly; !- [J]
Output:Meter:Cumulative,InteriorLights:Electricity:Zone:CB_SECONDARY_STAIRS_1_F1 ZN,hourly; !- [J]
Output:Meter,General:InteriorLights:Electricity:Zone:CB_SECONDARY_STAIRS_1_F1 ZN,hourly; !- [J]
Output:Meter:Cumulative,General:InteriorLights:Electricity:Zone:CB_SECONDARY_STAIRS_1_F1 ZN,hourly; !- [J]
Output:Meter,Electricity:Zone:CB_SECONDARY_STAIRS_1_F3 ZN,hourly; !- [J]
Output:Meter:Cumulative,Electricity:Zone:CB_SECONDARY_STAIRS_1_F3 ZN,hourly; !- [J]
Output:Meter,InteriorLights:Electricity:Zone:CB_SECONDARY_STAIRS_1_F3 ZN,hourly; !- [J]
Output:Meter:Cumulative,InteriorLights:Electricity:Zone:CB_SECONDARY_STAIRS_1_F3 ZN,hourly; !- [J]
Output:Meter,General:InteriorLights:Electricity:Zone:CB_SECONDARY_STAIRS_1_F3 ZN,hourly; !- [J]
Output:Meter:Cumulative,General:InteriorLights:Electricity:Zone:CB_SECONDARY_STAIRS_1_F3 ZN,hourly; !- [J]
Output:Meter,Electricity:Zone:CB_SECONDARY_STAIRS_1_F2 ZN,hourly; !- [J]
Output:Meter:Cumulative,Electricity:Zone:CB_SECONDARY_STAIRS_1_F2 ZN,hourly; !- [J]
Output:Meter,InteriorLights:Electricity:Zone:CB_SECONDARY_STAIRS_1_F2 ZN,hourly; !- [J]
Output:Meter:Cumulative,InteriorLights:Electricity:Zone:CB_SECONDARY_STAIRS_1_F2 ZN,hourly; !- [J]
Output:Meter,General:InteriorLights:Electricity:Zone:CB_SECONDARY_STAIRS_1_F2 ZN,hourly; !- [J]
Output:Meter:Cumulative,General:InteriorLights:Electricity:Zone:CB_SECONDARY_STAIRS_1_F2 ZN,hourly; !- [J]
Output:Meter,Electricity:Zone:CB_MAIN_STAIRS_F1 ZN,hourly; !- [J]
Output:Meter:Cumulative,Electricity:Zone:CB_MAIN_STAIRS_F1 ZN,hourly; !- [J]
Output:Meter,InteriorLights:Electricity:Zone:CB_MAIN_STAIRS_F1 ZN,hourly; !- [J]
Output:Meter:Cumulative,InteriorLights:Electricity:Zone:CB_MAIN_STAIRS_F1 ZN,hourly; !- [J]
Output:Meter,General:InteriorLights:Electricity:Zone:CB_MAIN_STAIRS_F1 ZN,hourly; !- [J]
Output:Meter:Cumulative,General:InteriorLights:Electricity:Zone:CB_MAIN_STAIRS_F1 ZN,hourly; !- [J]
Output:Meter,Electricity:Zone:CB_STORAGE_F1 ZN,hourly; !- [J]
Output:Meter:Cumulative,Electricity:Zone:CB_STORAGE_F1 ZN,hourly; !- [J]
Output:Meter,Electricity:SpaceType:COLLEGE - STORAGE,hourly; !- [J]
Output:Meter:Cumulative,Electricity:SpaceType:COLLEGE - STORAGE,hourly; !- [J]
Output:Meter,InteriorLights:Electricity:Zone:CB_STORAGE_F1 ZN,hourly; !- [J]
Output:Meter:Cumulative,InteriorLights:Electricity:Zone:CB_STORAGE_F1 ZN,hourly; !- [J]
Output:Meter,InteriorLights:Electricity:SpaceType:COLLEGE - STORAGE,hourly; !- [J]
Output:Meter:Cumulative,InteriorLights:Electricity:SpaceType:COLLEGE - STORAGE,hourly; !- [J]
Output:Meter,General:InteriorLights:Electricity:Zone:CB_STORAGE_F1 ZN,hourly; !- [J]
Output:Meter:Cumulative,General:InteriorLights:Electricity:Zone:CB_STORAGE_F1 ZN,hourly; !- [J]
Output:Meter,General:InteriorLights:Electricity:SpaceType:COLLEGE - STORAGE,hourly; !- [J]
Output:Meter:Cumulative,General:InteriorLights:Electricity:SpaceType:COLLEGE - STORAGE,hourly; !- [J]
Output:Meter,Electricity:Zone:CB_STUDIO_1_F2 ZN,hourly; !- [J]
Output:Meter:Cumulative,Electricity:Zone:CB_STUDIO_1_F2 ZN,hourly; !- [J]
Output:Meter,Electricity:SpaceType:COLLEGE - ART CLASSROOM,hourly; !- [J]
Output:Meter:Cumulative,Electricity:SpaceType:COLLEGE - ART CLASSROOM,hourly; !- [J]
Output:Meter,InteriorLights:Electricity:Zone:CB_STUDIO_1_F2 ZN,hourly; !- [J]
Output:Meter:Cumulative,InteriorLights:Electricity:Zone:CB_STUDIO_1_F2 ZN,hourly; !- [J]
Output:Meter,InteriorLights:Electricity:SpaceType:COLLEGE - ART CLASSROOM,hourly; !- [J]
Output:Meter:Cumulative,InteriorLights:Electricity:SpaceType:COLLEGE - ART CLASSROOM,hourly; !- [J]
Output:Meter,General:InteriorLights:Electricity:Zone:CB_STUDIO_1_F2 ZN,hourly; !- [J]
Output:Meter:Cumulative,General:InteriorLights:Electricity:Zone:CB_STUDIO_1_F2 ZN,hourly; !- [J]
Output:Meter,General:InteriorLights:Electricity:SpaceType:COLLEGE - ART CLASSROOM,hourly; !- [J]
Output:Meter:Cumulative,General:InteriorLights:Electricity:SpaceType:COLLEGE - ART CLASSROOM,hourly; !- [J]
Output:Meter,Electricity:Zone:CB_STUDIO_1_F3 ZN,hourly; !- [J]
Output:Meter:Cumulative,Electricity:Zone:CB_STUDIO_1_F3 ZN,hourly; !- [J]
Output:Meter,InteriorLights:Electricity:Zone:CB_STUDIO_1_F3 ZN,hourly; !- [J]
Output:Meter:Cumulative,InteriorLights:Electricity:Zone:CB_STUDIO_1_F3 ZN,hourly; !- [J]
Output:Meter,General:InteriorLights:Electricity:Zone:CB_STUDIO_1_F3 ZN,hourly; !- [J]
Output:Meter:Cumulative,General:InteriorLights:Electricity:Zone:CB_STUDIO_1_F3 ZN,hourly; !- [J]
Output:Meter,Electricity:Zone:CB_STUDIO_2_F2 ZN,hourly; !- [J]
Output:Meter:Cumulative,Electricity:Zone:CB_STUDIO_2_F2 ZN,hourly; !- [J]
Output:Meter,InteriorLights:Electricity:Zone:CB_STUDIO_2_F2 ZN,hourly; !- [J]
Output:Meter:Cumulative,InteriorLights:Electricity:Zone:CB_STUDIO_2_F2 ZN,hourly; !- [J]
Output:Meter,General:InteriorLights:Electricity:Zone:CB_STUDIO_2_F2 ZN,hourly; !- [J]
Output:Meter:Cumulative,General:InteriorLights:Electricity:Zone:CB_STUDIO_2_F2 ZN,hourly; !- [J]
Output:Meter,Electricity:Zone:CB_STUDIO_2_F3 ZN,hourly; !- [J]
Output:Meter:Cumulative,Electricity:Zone:CB_STUDIO_2_F3 ZN,hourly; !- [J]
Output:Meter,InteriorLights:Electricity:Zone:CB_STUDIO_2_F3 ZN,hourly; !- [J]
Output:Meter:Cumulative,InteriorLights:Electricity:Zone:CB_STUDIO_2_F3 ZN,hourly; !- [J]
Output:Meter,General:InteriorLights:Electricity:Zone:CB_STUDIO_2_F3 ZN,hourly; !- [J]
Output:Meter:Cumulative,General:InteriorLights:Electricity:Zone:CB_STUDIO_2_F3 ZN,hourly; !- [J]
Output:Meter,Electricity:Zone:CB_UTILITY_F1 ZN,hourly; !- [J]
Output:Meter:Cumulative,Electricity:Zone:CB_UTILITY_F1 ZN,hourly; !- [J]
Output:Meter,Electricity:SpaceType:COLLEGE - UTILITY,hourly; !- [J]
Output:Meter:Cumulative,Electricity:SpaceType:COLLEGE - UTILITY,hourly; !- [J]
Output:Meter,InteriorLights:Electricity:Zone:CB_UTILITY_F1 ZN,hourly; !- [J]
Output:Meter:Cumulative,InteriorLights:Electricity:Zone:CB_UTILITY_F1 ZN,hourly; !- [J]
Output:Meter,InteriorLights:Electricity:SpaceType:COLLEGE - UTILITY,hourly; !- [J]
Output:Meter:Cumulative,InteriorLights:Electricity:SpaceType:COLLEGE - UTILITY,hourly; !- [J]
Output:Meter,General:InteriorLights:Electricity:Zone:CB_UTILITY_F1 ZN,hourly; !- [J]
Output:Meter:Cumulative,General:InteriorLights:Electricity:Zone:CB_UTILITY_F1 ZN,hourly; !- [J]
Output:Meter,General:InteriorLights:Electricity:SpaceType:COLLEGE - UTILITY,hourly; !- [J]
Output:Meter:Cumulative,General:InteriorLights:Electricity:SpaceType:COLLEGE - UTILITY,hourly; !- [J]
Output:Meter,Electricity:Zone:CB_UTILITY_F4 ZN,hourly; !- [J]
Output:Meter:Cumulative,Electricity:Zone:CB_UTILITY_F4 ZN,hourly; !- [J]
Output:Meter,InteriorLights:Electricity:Zone:CB_UTILITY_F4 ZN,hourly; !- [J]
Output:Meter:Cumulative,InteriorLights:Electricity:Zone:CB_UTILITY_F4 ZN,hourly; !- [J]
Output:Meter,General:InteriorLights:Electricity:Zone:CB_UTILITY_F4 ZN,hourly; !- [J]
Output:Meter:Cumulative,General:InteriorLights:Electricity:Zone:CB_UTILITY_F4 ZN,hourly; !- [J]
Output:Meter,Electricity:Zone:CB_UTILITY_F3 ZN,hourly; !- [J]
Output:Meter:Cumulative,Electricity:Zone:CB_UTILITY_F3 ZN,hourly; !- [J]
Output:Meter,InteriorLights:Electricity:Zone:CB_UTILITY_F3 ZN,hourly; !- [J]
Output:Meter:Cumulative,InteriorLights:Electricity:Zone:CB_UTILITY_F3 ZN,hourly; !- [J]
Output:Meter,General:InteriorLights:Electricity:Zone:CB_UTILITY_F3 ZN,hourly; !- [J]
Output:Meter:Cumulative,General:InteriorLights:Electricity:Zone:CB_UTILITY_F3 ZN,hourly; !- [J]
Output:Meter,Electricity:Zone:CB_UTILITY_F2 ZN,hourly; !- [J]
Output:Meter:Cumulative,Electricity:Zone:CB_UTILITY_F2 ZN,hourly; !- [J]
Output:Meter,InteriorLights:Electricity:Zone:CB_UTILITY_F2 ZN,hourly; !- [J]
Output:Meter:Cumulative,InteriorLights:Electricity:Zone:CB_UTILITY_F2 ZN,hourly; !- [J]
Output:Meter,General:InteriorLights:Electricity:Zone:CB_UTILITY_F2 ZN,hourly; !- [J]
Output:Meter:Cumulative,General:InteriorLights:Electricity:Zone:CB_UTILITY_F2 ZN,hourly; !- [J]
Output:Meter,InteriorEquipment:Electricity,hourly; !- [J]
Output:Meter:Cumulative,InteriorEquipment:Electricity,hourly; !- [J]
Output:Meter,InteriorEquipment:Electricity:Zone:CB_CAFE_STUDY_LOUNGE_F1 ZN,hourly; !- [J]
Output:Meter:Cumulative,InteriorEquipment:Electricity:Zone:CB_CAFE_STUDY_LOUNGE_F1 ZN,hourly; !- [J]
Output:Meter,InteriorEquipment:Electricity:SpaceType:COLLEGE - LOUNGE,hourly; !- [J]
Output:Meter:Cumulative,InteriorEquipment:Electricity:SpaceType:COLLEGE - LOUNGE,hourly; !- [J]
Output:Meter,General:InteriorEquipment:Electricity,hourly; !- [J]
Output:Meter:Cumulative,General:InteriorEquipment:Electricity,hourly; !- [J]
Output:Meter,General:InteriorEquipment:Electricity:Zone:CB_CAFE_STUDY_LOUNGE_F1 ZN,hourly; !- [J]
Output:Meter:Cumulative,General:InteriorEquipment:Electricity:Zone:CB_CAFE_STUDY_LOUNGE_F1 ZN,hourly; !- [J]
Output:Meter,General:InteriorEquipment:Electricity:SpaceType:COLLEGE - LOUNGE,hourly; !- [J]
Output:Meter:Cumulative,General:InteriorEquipment:Electricity:SpaceType:COLLEGE - LOUNGE,hourly; !- [J]
Output:Meter,InteriorEquipment:Electricity:Zone:CB_CLASSROOM_1_F4 ZN,hourly; !- [J]
Output:Meter:Cumulative,InteriorEquipment:Electricity:Zone:CB_CLASSROOM_1_F4 ZN,hourly; !- [J]
Output:Meter,InteriorEquipment:Electricity:SpaceType:COLLEGE - CLASSROOM,hourly; !- [J]
Output:Meter:Cumulative,InteriorEquipment:Electricity:SpaceType:COLLEGE - CLASSROOM,hourly; !- [J]
Output:Meter,General:InteriorEquipment:Electricity:Zone:CB_CLASSROOM_1_F4 ZN,hourly; !- [J]
Output:Meter:Cumulative,General:InteriorEquipment:Electricity:Zone:CB_CLASSROOM_1_F4 ZN,hourly; !- [J]
Output:Meter,General:InteriorEquipment:Electricity:SpaceType:COLLEGE - CLASSROOM,hourly; !- [J]
Output:Meter:Cumulative,General:InteriorEquipment:Electricity:SpaceType:COLLEGE - CLASSROOM,hourly; !- [J]
Output:Meter,InteriorEquipment:Electricity:Zone:CB_CLASSROOM_2_F4 ZN,hourly; !- [J]
Output:Meter:Cumulative,InteriorEquipment:Electricity:Zone:CB_CLASSROOM_2_F4 ZN,hourly; !- [J]
Output:Meter,General:InteriorEquipment:Electricity:Zone:CB_CLASSROOM_2_F4 ZN,hourly; !- [J]
Output:Meter:Cumulative,General:InteriorEquipment:Electricity:Zone:CB_CLASSROOM_2_F4 ZN,hourly; !- [J]
Output:Meter,InteriorEquipment:Electricity:Zone:CB_CLASSROOM_3_F4 ZN,hourly; !- [J]
Output:Meter:Cumulative,InteriorEquipment:Electricity:Zone:CB_CLASSROOM_3_F4 ZN,hourly; !- [J]
Output:Meter,General:InteriorEquipment:Electricity:Zone:CB_CLASSROOM_3_F4 ZN,hourly; !- [J]
Output:Meter:Cumulative,General:InteriorEquipment:Electricity:Zone:CB_CLASSROOM_3_F4 ZN,hourly; !- [J]
Output:Meter,InteriorEquipment:Electricity:Zone:CB_CLASSROOM_5_F4 ZN,hourly; !- [J]
Output:Meter:Cumulative,InteriorEquipment:Electricity:Zone:CB_CLASSROOM_5_F4 ZN,hourly; !- [J]
Output:Meter,General:InteriorEquipment:Electricity:Zone:CB_CLASSROOM_5_F4 ZN,hourly; !- [J]
Output:Meter:Cumulative,General:InteriorEquipment:Electricity:Zone:CB_CLASSROOM_5_F4 ZN,hourly; !- [J]
Output:Meter,InteriorEquipment:Electricity:Zone:CB_CLASSROOM_6_F4 ZN,hourly; !- [J]
Output:Meter:Cumulative,InteriorEquipment:Electricity:Zone:CB_CLASSROOM_6_F4 ZN,hourly; !- [J]
Output:Meter,General:InteriorEquipment:Electricity:Zone:CB_CLASSROOM_6_F4 ZN,hourly; !- [J]
Output:Meter:Cumulative,General:InteriorEquipment:Electricity:Zone:CB_CLASSROOM_6_F4 ZN,hourly; !- [J]
Output:Meter,InteriorEquipment:Electricity:Zone:CB_CLASSROOM_7_F2 ZN,hourly; !- [J]
Output:Meter:Cumulative,InteriorEquipment:Electricity:Zone:CB_CLASSROOM_7_F2 ZN,hourly; !- [J]
Output:Meter,General:InteriorEquipment:Electricity:Zone:CB_CLASSROOM_7_F2 ZN,hourly; !- [J]
Output:Meter:Cumulative,General:InteriorEquipment:Electricity:Zone:CB_CLASSROOM_7_F2 ZN,hourly; !- [J]
Output:Meter,InteriorEquipment:Electricity:Zone:CB_CLASSROOM_6_F2 ZN,hourly; !- [J]
Output:Meter:Cumulative,InteriorEquipment:Electricity:Zone:CB_CLASSROOM_6_F2 ZN,hourly; !- [J]
Output:Meter,General:InteriorEquipment:Electricity:Zone:CB_CLASSROOM_6_F2 ZN,hourly; !- [J]
Output:Meter:Cumulative,General:InteriorEquipment:Electricity:Zone:CB_CLASSROOM_6_F2 ZN,hourly; !- [J]
Output:Meter,InteriorEquipment:Electricity:Zone:CB_CLASSROOM_5_F2 ZN,hourly; !- [J]
Output:Meter:Cumulative,InteriorEquipment:Electricity:Zone:CB_CLASSROOM_5_F2 ZN,hourly; !- [J]
Output:Meter,General:InteriorEquipment:Electricity:Zone:CB_CLASSROOM_5_F2 ZN,hourly; !- [J]
Output:Meter:Cumulative,General:InteriorEquipment:Electricity:Zone:CB_CLASSROOM_5_F2 ZN,hourly; !- [J]
Output:Meter,InteriorEquipment:Electricity:Zone:CB_CLASSROOM_4_F3 ZN,hourly; !- [J]
Output:Meter:Cumulative,InteriorEquipment:Electricity:Zone:CB_CLASSROOM_4_F3 ZN,hourly; !- [J]
Output:Meter,General:InteriorEquipment:Electricity:Zone:CB_CLASSROOM_4_F3 ZN,hourly; !- [J]
Output:Meter:Cumulative,General:InteriorEquipment:Electricity:Zone:CB_CLASSROOM_4_F3 ZN,hourly; !- [J]
Output:Meter,InteriorEquipment:Electricity:Zone:CB_CLASSROOM_3_F3 ZN,hourly; !- [J]
Output:Meter:Cumulative,InteriorEquipment:Electricity:Zone:CB_CLASSROOM_3_F3 ZN,hourly; !- [J]
Output:Meter,General:InteriorEquipment:Electricity:Zone:CB_CLASSROOM_3_F3 ZN,hourly; !- [J]
Output:Meter:Cumulative,General:InteriorEquipment:Electricity:Zone:CB_CLASSROOM_3_F3 ZN,hourly; !- [J]
Output:Meter,InteriorEquipment:Electricity:Zone:CB_CLASSROOM_5_F3 ZN,hourly; !- [J]
Output:Meter:Cumulative,InteriorEquipment:Electricity:Zone:CB_CLASSROOM_5_F3 ZN,hourly; !- [J]
Output:Meter,General:InteriorEquipment:Electricity:Zone:CB_CLASSROOM_5_F3 ZN,hourly; !- [J]
Output:Meter:Cumulative,General:InteriorEquipment:Electricity:Zone:CB_CLASSROOM_5_F3 ZN,hourly; !- [J]
Output:Meter,InteriorEquipment:Electricity:Zone:CB_CLASSROOM_1_F3 ZN,hourly; !- [J]
Output:Meter:Cumulative,InteriorEquipment:Electricity:Zone:CB_CLASSROOM_1_F3 ZN,hourly; !- [J]
Output:Meter,General:InteriorEquipment:Electricity:Zone:CB_CLASSROOM_1_F3 ZN,hourly; !- [J]
Output:Meter:Cumulative,General:InteriorEquipment:Electricity:Zone:CB_CLASSROOM_1_F3 ZN,hourly; !- [J]
Output:Meter,InteriorEquipment:Electricity:Zone:CB_CLASSROOM_2_F3 ZN,hourly; !- [J]
Output:Meter:Cumulative,InteriorEquipment:Electricity:Zone:CB_CLASSROOM_2_F3 ZN,hourly; !- [J]
Output:Meter,General:InteriorEquipment:Electricity:Zone:CB_CLASSROOM_2_F3 ZN,hourly; !- [J]
Output:Meter:Cumulative,General:InteriorEquipment:Electricity:Zone:CB_CLASSROOM_2_F3 ZN,hourly; !- [J]
Output:Meter,InteriorEquipment:Electricity:Zone:CB_CLASSROOM_8_F2 ZN,hourly; !- [J]
Output:Meter:Cumulative,InteriorEquipment:Electricity:Zone:CB_CLASSROOM_8_F2 ZN,hourly; !- [J]
Output:Meter,General:InteriorEquipment:Electricity:Zone:CB_CLASSROOM_8_F2 ZN,hourly; !- [J]
Output:Meter:Cumulative,General:InteriorEquipment:Electricity:Zone:CB_CLASSROOM_8_F2 ZN,hourly; !- [J]
Output:Meter,InteriorEquipment:Electricity:Zone:CB_CLASSROOM_6_F3 ZN,hourly; !- [J]
Output:Meter:Cumulative,InteriorEquipment:Electricity:Zone:CB_CLASSROOM_6_F3 ZN,hourly; !- [J]
Output:Meter,General:InteriorEquipment:Electricity:Zone:CB_CLASSROOM_6_F3 ZN,hourly; !- [J]
Output:Meter:Cumulative,General:InteriorEquipment:Electricity:Zone:CB_CLASSROOM_6_F3 ZN,hourly; !- [J]
Output:Meter,InteriorEquipment:Electricity:Zone:CB_CLASSROOM_7_F3 ZN,hourly; !- [J]
Output:Meter:Cumulative,InteriorEquipment:Electricity:Zone:CB_CLASSROOM_7_F3 ZN,hourly; !- [J]
Output:Meter,General:InteriorEquipment:Electricity:Zone:CB_CLASSROOM_7_F3 ZN,hourly; !- [J]
Output:Meter:Cumulative,General:InteriorEquipment:Electricity:Zone:CB_CLASSROOM_7_F3 ZN,hourly; !- [J]
Output:Meter,InteriorEquipment:Electricity:Zone:CB_CLASSROOM_8_F3 ZN,hourly; !- [J]
Output:Meter:Cumulative,InteriorEquipment:Electricity:Zone:CB_CLASSROOM_8_F3 ZN,hourly; !- [J]
Output:Meter,General:InteriorEquipment:Electricity:Zone:CB_CLASSROOM_8_F3 ZN,hourly; !- [J]
Output:Meter:Cumulative,General:InteriorEquipment:Electricity:Zone:CB_CLASSROOM_8_F3 ZN,hourly; !- [J]
Output:Meter,InteriorEquipment:Electricity:Zone:CB_CLASSROOM_4_F4 ZN,hourly; !- [J]
Output:Meter:Cumulative,InteriorEquipment:Electricity:Zone:CB_CLASSROOM_4_F4 ZN,hourly; !- [J]
Output:Meter,General:InteriorEquipment:Electricity:Zone:CB_CLASSROOM_4_F4 ZN,hourly; !- [J]
Output:Meter:Cumulative,General:InteriorEquipment:Electricity:Zone:CB_CLASSROOM_4_F4 ZN,hourly; !- [J]
Output:Meter,InteriorEquipment:Electricity:Zone:CB_CLASSROOM_4_F2 ZN,hourly; !- [J]
Output:Meter:Cumulative,InteriorEquipment:Electricity:Zone:CB_CLASSROOM_4_F2 ZN,hourly; !- [J]
Output:Meter,General:InteriorEquipment:Electricity:Zone:CB_CLASSROOM_4_F2 ZN,hourly; !- [J]
Output:Meter:Cumulative,General:InteriorEquipment:Electricity:Zone:CB_CLASSROOM_4_F2 ZN,hourly; !- [J]
Output:Meter,InteriorEquipment:Electricity:Zone:CB_LECTURE_ROOM_2_F1 ZN,hourly; !- [J]
Output:Meter:Cumulative,InteriorEquipment:Electricity:Zone:CB_LECTURE_ROOM_2_F1 ZN,hourly; !- [J]
Output:Meter,General:InteriorEquipment:Electricity:Zone:CB_LECTURE_ROOM_2_F1 ZN,hourly; !- [J]
Output:Meter:Cumulative,General:InteriorEquipment:Electricity:Zone:CB_LECTURE_ROOM_2_F1 ZN,hourly; !- [J]
Output:Meter,InteriorEquipment:Electricity:Zone:CB_CLASSROOM_2_F2 ZN,hourly; !- [J]
Output:Meter:Cumulative,InteriorEquipment:Electricity:Zone:CB_CLASSROOM_2_F2 ZN,hourly; !- [J]
Output:Meter,General:InteriorEquipment:Electricity:Zone:CB_CLASSROOM_2_F2 ZN,hourly; !- [J]
Output:Meter:Cumulative,General:InteriorEquipment:Electricity:Zone:CB_CLASSROOM_2_F2 ZN,hourly; !- [J]
Output:Meter,InteriorEquipment:Electricity:Zone:CB_CLASSROOM_1_F2 ZN,hourly; !- [J]
Output:Meter:Cumulative,InteriorEquipment:Electricity:Zone:CB_CLASSROOM_1_F2 ZN,hourly; !- [J]
Output:Meter,General:InteriorEquipment:Electricity:Zone:CB_CLASSROOM_1_F2 ZN,hourly; !- [J]
Output:Meter:Cumulative,General:InteriorEquipment:Electricity:Zone:CB_CLASSROOM_1_F2 ZN,hourly; !- [J]
Output:Meter,InteriorEquipment:Electricity:Zone:CB_CLASSROOM_3_F2 ZN,hourly; !- [J]
Output:Meter:Cumulative,InteriorEquipment:Electricity:Zone:CB_CLASSROOM_3_F2 ZN,hourly; !- [J]
Output:Meter,General:InteriorEquipment:Electricity:Zone:CB_CLASSROOM_3_F2 ZN,hourly; !- [J]
Output:Meter:Cumulative,General:InteriorEquipment:Electricity:Zone:CB_CLASSROOM_3_F2 ZN,hourly; !- [J]
Output:Meter,InteriorEquipment:Electricity:Zone:CB_CONFERENCE_ROOM_F4 ZN,hourly; !- [J]
Output:Meter:Cumulative,InteriorEquipment:Electricity:Zone:CB_CONFERENCE_ROOM_F4 ZN,hourly; !- [J]
Output:Meter,InteriorEquipment:Electricity:SpaceType:COLLEGE - CONFERENCE,hourly; !- [J]
Output:Meter:Cumulative,InteriorEquipment:Electricity:SpaceType:COLLEGE - CONFERENCE,hourly; !- [J]
Output:Meter,General:InteriorEquipment:Electricity:Zone:CB_CONFERENCE_ROOM_F4 ZN,hourly; !- [J]
Output:Meter:Cumulative,General:InteriorEquipment:Electricity:Zone:CB_CONFERENCE_ROOM_F4 ZN,hourly; !- [J]
Output:Meter,General:InteriorEquipment:Electricity:SpaceType:COLLEGE - CONFERENCE,hourly; !- [J]
Output:Meter:Cumulative,General:InteriorEquipment:Electricity:SpaceType:COLLEGE - CONFERENCE,hourly; !- [J]
Output:Meter,InteriorEquipment:Electricity:Zone:CB_CONFERENCE_ROOM_F3 ZN,hourly; !- [J]
Output:Meter:Cumulative,InteriorEquipment:Electricity:Zone:CB_CONFERENCE_ROOM_F3 ZN,hourly; !- [J]
Output:Meter,General:InteriorEquipment:Electricity:Zone:CB_CONFERENCE_ROOM_F3 ZN,hourly; !- [J]
Output:Meter:Cumulative,General:InteriorEquipment:Electricity:Zone:CB_CONFERENCE_ROOM_F3 ZN,hourly; !- [J]
Output:Meter,InteriorEquipment:Electricity:Zone:CB_CONFERENCE_ROOM_F1 ZN,hourly; !- [J]
Output:Meter:Cumulative,InteriorEquipment:Electricity:Zone:CB_CONFERENCE_ROOM_F1 ZN,hourly; !- [J]
Output:Meter,General:InteriorEquipment:Electricity:Zone:CB_CONFERENCE_ROOM_F1 ZN,hourly; !- [J]
Output:Meter:Cumulative,General:InteriorEquipment:Electricity:Zone:CB_CONFERENCE_ROOM_F1 ZN,hourly; !- [J]
Output:Meter,InteriorEquipment:Electricity:Zone:CB_CONFERENCE_ROOM_F2 ZN,hourly; !- [J]
Output:Meter:Cumulative,InteriorEquipment:Electricity:Zone:CB_CONFERENCE_ROOM_F2 ZN,hourly; !- [J]
Output:Meter,General:InteriorEquipment:Electricity:Zone:CB_CONFERENCE_ROOM_F2 ZN,hourly; !- [J]
Output:Meter:Cumulative,General:InteriorEquipment:Electricity:Zone:CB_CONFERENCE_ROOM_F2 ZN,hourly; !- [J]
Output:Meter,InteriorEquipment:Electricity:Zone:CB_CORRIDOR_F1 ZN,hourly; !- [J]
Output:Meter:Cumulative,InteriorEquipment:Electricity:Zone:CB_CORRIDOR_F1 ZN,hourly; !- [J]
Output:Meter,InteriorEquipment:Electricity:SpaceType:COLLEGE - CORRIDOR,hourly; !- [J]
Output:Meter:Cumulative,InteriorEquipment:Electricity:SpaceType:COLLEGE - CORRIDOR,hourly; !- [J]
Output:Meter,General:InteriorEquipment:Electricity:Zone:CB_CORRIDOR_F1 ZN,hourly; !- [J]
Output:Meter:Cumulative,General:InteriorEquipment:Electricity:Zone:CB_CORRIDOR_F1 ZN,hourly; !- [J]
Output:Meter,General:InteriorEquipment:Electricity:SpaceType:COLLEGE - CORRIDOR,hourly; !- [J]
Output:Meter:Cumulative,General:InteriorEquipment:Electricity:SpaceType:COLLEGE - CORRIDOR,hourly; !- [J]
Output:Meter,InteriorEquipment:Electricity:Zone:CB_CORRIDOR_F4 ZN,hourly; !- [J]
Output:Meter:Cumulative,InteriorEquipment:Electricity:Zone:CB_CORRIDOR_F4 ZN,hourly; !- [J]
Output:Meter,General:InteriorEquipment:Electricity:Zone:CB_CORRIDOR_F4 ZN,hourly; !- [J]
Output:Meter:Cumulative,General:InteriorEquipment:Electricity:Zone:CB_CORRIDOR_F4 ZN,hourly; !- [J]
Output:Meter,InteriorEquipment:Electricity:Zone:CB_CORRIDOR_F2 ZN,hourly; !- [J]
Output:Meter:Cumulative,InteriorEquipment:Electricity:Zone:CB_CORRIDOR_F2 ZN,hourly; !- [J]
Output:Meter,General:InteriorEquipment:Electricity:Zone:CB_CORRIDOR_F2 ZN,hourly; !- [J]
Output:Meter:Cumulative,General:InteriorEquipment:Electricity:Zone:CB_CORRIDOR_F2 ZN,hourly; !- [J]
Output:Meter,InteriorEquipment:Electricity:Zone:CB_CORRIDOR_2_F3 ZN,hourly; !- [J]
Output:Meter:Cumulative,InteriorEquipment:Electricity:Zone:CB_CORRIDOR_2_F3 ZN,hourly; !- [J]
Output:Meter,General:InteriorEquipment:Electricity:Zone:CB_CORRIDOR_2_F3 ZN,hourly; !- [J]
Output:Meter:Cumulative,General:InteriorEquipment:Electricity:Zone:CB_CORRIDOR_2_F3 ZN,hourly; !- [J]
Output:Meter,InteriorEquipment:Electricity:Zone:CB_CORRIDOR_1_F3 ZN,hourly; !- [J]
[...]
Output:Meter:Cumulative,EnergyTransfer:Zone:CB_STUDENTS_RESTROOMS_1_F3 ZN,hourly; !- [J]
Output:Meter,Heating:EnergyTransfer:Zone:CB_STUDENTS_RESTROOMS_1_F3 ZN,hourly; !- [J]
Output:Meter:Cumulative,Heating:EnergyTransfer:Zone:CB_STUDENTS_RESTROOMS_1_F3 ZN,hourly; !- [J]
Output:Meter,General:Heating:EnergyTransfer:Zone:CB_STUDENTS_RESTROOMS_1_F3 ZN,hourly; !- [J]
Output:Meter:Cumulative,General:Heating:EnergyTransfer:Zone:CB_STUDENTS_RESTROOMS_1_F3 ZN,hourly; !- [J]
Output:Meter,Cooling:EnergyTransfer:Zone:CB_STUDENTS_RESTROOMS_1_F3 ZN,hourly; !- [J]
Output:Meter:Cumulative,Cooling:EnergyTransfer:Zone:CB_STUDENTS_RESTROOMS_1_F3 ZN,hourly; !- [J]
Output:Meter,General:Cooling:EnergyTransfer:Zone:CB_STUDENTS_RESTROOMS_1_F3 ZN,hourly; !- [J]
Output:Meter:Cumulative,General:Cooling:EnergyTransfer:Zone:CB_STUDENTS_RESTROOMS_1_F3 ZN,hourly; !- [J]
Output:Meter,EnergyTransfer:Zone:CB_STUDENTS_RESTROOMS_1_F4 ZN,hourly; !- [J]
Output:Meter:Cumulative,EnergyTransfer:Zone:CB_STUDENTS_RESTROOMS_1_F4 ZN,hourly; !- [J]
Output:Meter,Heating:EnergyTransfer:Zone:CB_STUDENTS_RESTROOMS_1_F4 ZN,hourly; !- [J]
Output:Meter:Cumulative,Heating:EnergyTransfer:Zone:CB_STUDENTS_RESTROOMS_1_F4 ZN,hourly; !- [J]
Output:Meter,General:Heating:EnergyTransfer:Zone:CB_STUDENTS_RESTROOMS_1_F4 ZN,hourly; !- [J]
Output:Meter:Cumulative,General:Heating:EnergyTransfer:Zone:CB_STUDENTS_RESTROOMS_1_F4 ZN,hourly; !- [J]
Output:Meter,Cooling:EnergyTransfer:Zone:CB_STUDENTS_RESTROOMS_1_F4 ZN,hourly; !- [J]
Output:Meter:Cumulative,Cooling:EnergyTransfer:Zone:CB_STUDENTS_RESTROOMS_1_F4 ZN,hourly; !- [J]
Output:Meter,General:Cooling:EnergyTransfer:Zone:CB_STUDENTS_RESTROOMS_1_F4 ZN,hourly; !- [J]
Output:Meter:Cumulative,General:Cooling:EnergyTransfer:Zone:CB_STUDENTS_RESTROOMS_1_F4 ZN,hourly; !- [J]
Output:Meter,EnergyTransfer:Zone:CB_STUDENTS_RESTROOMS_2_F1 ZN,hourly; !- [J]
Output:Meter:Cumulative,EnergyTransfer:Zone:CB_STUDENTS_RESTROOMS_2_F1 ZN,hourly; !- [J]
Output:Meter,Heating:EnergyTransfer:Zone:CB_STUDENTS_RESTROOMS_2_F1 ZN,hourly; !- [J]
Output:Meter:Cumulative,Heating:EnergyTransfer:Zone:CB_STUDENTS_RESTROOMS_2_F1 ZN,hourly; !- [J]
Output:Meter,General:Heating:EnergyTransfer:Zone:CB_STUDENTS_RESTROOMS_2_F1 ZN,hourly; !- [J]
Output:Meter:Cumulative,General:Heating:EnergyTransfer:Zone:CB_STUDENTS_RESTROOMS_2_F1 ZN,hourly; !- [J]
Output:Meter,Cooling:EnergyTransfer:Zone:CB_STUDENTS_RESTROOMS_2_F1 ZN,hourly; !- [J]
Output:Meter:Cumulative,Cooling:EnergyTransfer:Zone:CB_STUDENTS_RESTROOMS_2_F1 ZN,hourly; !- [J]
Output:Meter,General:Cooling:EnergyTransfer:Zone:CB_STUDENTS_RESTROOMS_2_F1 ZN,hourly; !- [J]
Output:Meter:Cumulative,General:Cooling:EnergyTransfer:Zone:CB_STUDENTS_RESTROOMS_2_F1 ZN,hourly; !- [J]
Output:Meter,EnergyTransfer:Zone:CB_STUDENTS_RESTROOMS_2_F2 ZN,hourly; !- [J]
Output:Meter:Cumulative,EnergyTransfer:Zone:CB_STUDENTS_RESTROOMS_2_F2 ZN,hourly; !- [J]
Output:Meter,Heating:EnergyTransfer:Zone:CB_STUDENTS_RESTROOMS_2_F2 ZN,hourly; !- [J]
Output:Meter:Cumulative,Heating:EnergyTransfer:Zone:CB_STUDENTS_RESTROOMS_2_F2 ZN,hourly; !- [J]
Output:Meter,General:Heating:EnergyTransfer:Zone:CB_STUDENTS_RESTROOMS_2_F2 ZN,hourly; !- [J]
Output:Meter:Cumulative,General:Heating:EnergyTransfer:Zone:CB_STUDENTS_RESTROOMS_2_F2 ZN,hourly; !- [J]
Output:Meter,Cooling:EnergyTransfer:Zone:CB_STUDENTS_RESTROOMS_2_F2 ZN,hourly; !- [J]
Output:Meter:Cumulative,Cooling:EnergyTransfer:Zone:CB_STUDENTS_RESTROOMS_2_F2 ZN,hourly; !- [J]
Output:Meter,General:Cooling:EnergyTransfer:Zone:CB_STUDENTS_RESTROOMS_2_F2 ZN,hourly; !- [J]
Output:Meter:Cumulative,General:Cooling:EnergyTransfer:Zone:CB_STUDENTS_RESTROOMS_2_F2 ZN,hourly; !- [J]
Output:Meter,EnergyTransfer:Zone:CB_STUDENTS_RESTROOMS_2_F3 ZN,hourly; !- [J]
Output:Meter:Cumulative,EnergyTransfer:Zone:CB_STUDENTS_RESTROOMS_2_F3 ZN,hourly; !- [J]
Output:Meter,Heating:EnergyTransfer:Zone:CB_STUDENTS_RESTROOMS_2_F3 ZN,hourly; !- [J]
Output:Meter:Cumulative,Heating:EnergyTransfer:Zone:CB_STUDENTS_RESTROOMS_2_F3 ZN,hourly; !- [J]
Output:Meter,General:Heating:EnergyTransfer:Zone:CB_STUDENTS_RESTROOMS_2_F3 ZN,hourly; !- [J]
Output:Meter:Cumulative,General:Heating:EnergyTransfer:Zone:CB_STUDENTS_RESTROOMS_2_F3 ZN,hourly; !- [J]
Output:Meter,Cooling:EnergyTransfer:Zone:CB_STUDENTS_RESTROOMS_2_F3 ZN,hourly; !- [J]
Output:Meter:Cumulative,Cooling:EnergyTransfer:Zone:CB_STUDENTS_RESTROOMS_2_F3 ZN,hourly; !- [J]
Output:Meter,General:Cooling:EnergyTransfer:Zone:CB_STUDENTS_RESTROOMS_2_F3 ZN,hourly; !- [J]
Output:Meter:Cumulative,General:Cooling:EnergyTransfer:Zone:CB_STUDENTS_RESTROOMS_2_F3 ZN,hourly; !- [J]
Output:Meter,EnergyTransfer:Zone:CB_STUDENTS_RESTROOMS_2_F4 ZN,hourly; !- [J]
Output:Meter:Cumulative,EnergyTransfer:Zone:CB_STUDENTS_RESTROOMS_2_F4 ZN,hourly; !- [J]
Output:Meter,Heating:EnergyTransfer:Zone:CB_STUDENTS_RESTROOMS_2_F4 ZN,hourly; !- [J]
Output:Meter:Cumulative,Heating:EnergyTransfer:Zone:CB_STUDENTS_RESTROOMS_2_F4 ZN,hourly; !- [J]
Output:Meter,General:Heating:EnergyTransfer:Zone:CB_STUDENTS_RESTROOMS_2_F4 ZN,hourly; !- [J]
Output:Meter:Cumulative,General:Heating:EnergyTransfer:Zone:CB_STUDENTS_RESTROOMS_2_F4 ZN,hourly; !- [J]
Output:Meter,Cooling:EnergyTransfer:Zone:CB_STUDENTS_RESTROOMS_2_F4 ZN,hourly; !- [J]
Output:Meter:Cumulative,Cooling:EnergyTransfer:Zone:CB_STUDENTS_RESTROOMS_2_F4 ZN,hourly; !- [J]
Output:Meter,General:Cooling:EnergyTransfer:Zone:CB_STUDENTS_RESTROOMS_2_F4 ZN,hourly; !- [J]
Output:Meter:Cumulative,General:Cooling:EnergyTransfer:Zone:CB_STUDENTS_RESTROOMS_2_F4 ZN,hourly; !- [J]
Output:Meter,EnergyTransfer:Zone:CB_STUDIO_1_F2 ZN,hourly; !- [J]
Output:Meter:Cumulative,EnergyTransfer:Zone:CB_STUDIO_1_F2 ZN,hourly; !- [J]
Output:Meter,Heating:EnergyTransfer:Zone:CB_STUDIO_1_F2 ZN,hourly; !- [J]
Output:Meter:Cumulative,Heating:EnergyTransfer:Zone:CB_STUDIO_1_F2 ZN,hourly; !- [J]
Output:Meter,General:Heating:EnergyTransfer:Zone:CB_STUDIO_1_F2 ZN,hourly; !- [J]
Output:Meter:Cumulative,General:Heating:EnergyTransfer:Zone:CB_STUDIO_1_F2 ZN,hourly; !- [J]
Output:Meter,Cooling:EnergyTransfer:Zone:CB_STUDIO_1_F2 ZN,hourly; !- [J]
Output:Meter:Cumulative,Cooling:EnergyTransfer:Zone:CB_STUDIO_1_F2 ZN,hourly; !- [J]
Output:Meter,General:Cooling:EnergyTransfer:Zone:CB_STUDIO_1_F2 ZN,hourly; !- [J]
Output:Meter:Cumulative,General:Cooling:EnergyTransfer:Zone:CB_STUDIO_1_F2 ZN,hourly; !- [J]
Output:Meter,EnergyTransfer:Zone:CB_STUDIO_1_F3 ZN,hourly; !- [J]
Output:Meter:Cumulative,EnergyTransfer:Zone:CB_STUDIO_1_F3 ZN,hourly; !- [J]
Output:Meter,Heating:EnergyTransfer:Zone:CB_STUDIO_1_F3 ZN,hourly; !- [J]
Output:Meter:Cumulative,Heating:EnergyTransfer:Zone:CB_STUDIO_1_F3 ZN,hourly; !- [J]
Output:Meter,General:Heating:EnergyTransfer:Zone:CB_STUDIO_1_F3 ZN,hourly; !- [J]
Output:Meter:Cumulative,General:Heating:EnergyTransfer:Zone:CB_STUDIO_1_F3 ZN,hourly; !- [J]
Output:Meter,Cooling:EnergyTransfer:Zone:CB_STUDIO_1_F3 ZN,hourly; !- [J]
Output:Meter:Cumulative,Cooling:EnergyTransfer:Zone:CB_STUDIO_1_F3 ZN,hourly; !- [J]
Output:Meter,General:Cooling:EnergyTransfer:Zone:CB_STUDIO_1_F3 ZN,hourly; !- [J]
Output:Meter:Cumulative,General:Cooling:EnergyTransfer:Zone:CB_STUDIO_1_F3 ZN,hourly; !- [J]
Output:Meter,EnergyTransfer:Zone:CB_STUDIO_2_F2 ZN,hourly; !- [J]
Output:Meter:Cumulative,EnergyTransfer:Zone:CB_STUDIO_2_F2 ZN,hourly; !- [J]
Output:Meter,Heating:EnergyTransfer:Zone:CB_STUDIO_2_F2 ZN,hourly; !- [J]
Output:Meter:Cumulative,Heating:EnergyTransfer:Zone:CB_STUDIO_2_F2 ZN,hourly; !- [J]
Output:Meter,General:Heating:EnergyTransfer:Zone:CB_STUDIO_2_F2 ZN,hourly; !- [J]
Output:Meter:Cumulative,General:Heating:EnergyTransfer:Zone:CB_STUDIO_2_F2 ZN,hourly; !- [J]
Output:Meter,Cooling:EnergyTransfer:Zone:CB_STUDIO_2_F2 ZN,hourly; !- [J]
Output:Meter:Cumulative,Cooling:EnergyTransfer:Zone:CB_STUDIO_2_F2 ZN,hourly; !- [J]
Output:Meter,General:Cooling:EnergyTransfer:Zone:CB_STUDIO_2_F2 ZN,hourly; !- [J]
Output:Meter:Cumulative,General:Cooling:EnergyTransfer:Zone:CB_STUDIO_2_F2 ZN,hourly; !- [J]
Output:Meter,EnergyTransfer:Zone:CB_STUDIO_2_F3 ZN,hourly; !- [J]
Output:Meter:Cumulative,EnergyTransfer:Zone:CB_STUDIO_2_F3 ZN,hourly; !- [J]
Output:Meter,Heating:EnergyTransfer:Zone:CB_STUDIO_2_F3 ZN,hourly; !- [J]
Output:Meter:Cumulative,Heating:EnergyTransfer:Zone:CB_STUDIO_2_F3 ZN,hourly; !- [J]
Output:Meter,General:Heating:EnergyTransfer:Zone:CB_STUDIO_2_F3 ZN,hourly; !- [J]
Output:Meter:Cumulative,General:Heating:EnergyTransfer:Zone:CB_STUDIO_2_F3 ZN,hourly; !- [J]
Output:Meter,Cooling:EnergyTransfer:Zone:CB_STUDIO_2_F3 ZN,hourly; !- [J]
Output:Meter:Cumulative,Cooling:EnergyTransfer:Zone:CB_STUDIO_2_F3 ZN,hourly; !- [J]
Output:Meter,General:Cooling:EnergyTransfer:Zone:CB_STUDIO_2_F3 ZN,hourly; !- [J]
Output:Meter:Cumulative,General:Cooling:EnergyTransfer:Zone:CB_STUDIO_2_F3 ZN,hourly; !- [J]
Output:Meter,EnergyTransfer:Zone:CB_UTILITY_F1 ZN,hourly; !- [J]
Output:Meter:Cumulative,EnergyTransfer:Zone:CB_UTILITY_F1 ZN,hourly; !- [J]
Output:Meter,Heating:EnergyTransfer:Zone:CB_UTILITY_F1 ZN,hourly; !- [J]
Output:Meter:Cumulative,Heating:EnergyTransfer:Zone:CB_UTILITY_F1 ZN,hourly; !- [J]
Output:Meter,General:Heating:EnergyTransfer:Zone:CB_UTILITY_F1 ZN,hourly; !- [J]
Output:Meter:Cumulative,General:Heating:EnergyTransfer:Zone:CB_UTILITY_F1 ZN,hourly; !- [J]
Output:Meter,Cooling:EnergyTransfer:Zone:CB_UTILITY_F1 ZN,hourly; !- [J]
Output:Meter:Cumulative,Cooling:EnergyTransfer:Zone:CB_UTILITY_F1 ZN,hourly; !- [J]
Output:Meter,General:Cooling:EnergyTransfer:Zone:CB_UTILITY_F1 ZN,hourly; !- [J]
Output:Meter:Cumulative,General:Cooling:EnergyTransfer:Zone:CB_UTILITY_F1 ZN,hourly; !- [J]
Output:Meter,EnergyTransfer:Zone:CB_UTILITY_F2 ZN,hourly; !- [J]
Output:Meter:Cumulative,EnergyTransfer:Zone:CB_UTILITY_F2 ZN,hourly; !- [J]
Output:Meter,Heating:EnergyTransfer:Zone:CB_UTILITY_F2 ZN,hourly; !- [J]
Output:Meter:Cumulative,Heating:EnergyTransfer:Zone:CB_UTILITY_F2 ZN,hourly; !- [J]
Output:Meter,General:Heating:EnergyTransfer:Zone:CB_UTILITY_F2 ZN,hourly; !- [J]
Output:Meter:Cumulative,General:Heating:EnergyTransfer:Zone:CB_UTILITY_F2 ZN,hourly; !- [J]
Output:Meter,Cooling:EnergyTransfer:Zone:CB_UTILITY_F2 ZN,hourly; !- [J]
Output:Meter:Cumulative,Cooling:EnergyTransfer:Zone:CB_UTILITY_F2 ZN,hourly; !- [J]
Output:Meter,General:Cooling:EnergyTransfer:Zone:CB_UTILITY_F2 ZN,hourly; !- [J]
Output:Meter:Cumulative,General:Cooling:EnergyTransfer:Zone:CB_UTILITY_F2 ZN,hourly; !- [J]
Output:Meter,EnergyTransfer:Zone:CB_UTILITY_F3 ZN,hourly; !- [J]
Output:Meter:Cumulative,EnergyTransfer:Zone:CB_UTILITY_F3 ZN,hourly; !- [J]
Output:Meter,Heating:EnergyTransfer:Zone:CB_UTILITY_F3 ZN,hourly; !- [J]
Output:Meter:Cumulative,Heating:EnergyTransfer:Zone:CB_UTILITY_F3 ZN,hourly; !- [J]
Output:Meter,General:Heating:EnergyTransfer:Zone:CB_UTILITY_F3 ZN,hourly; !- [J]
Output:Meter:Cumulative,General:Heating:EnergyTransfer:Zone:CB_UTILITY_F3 ZN,hourly; !- [J]
Output:Meter,Cooling:EnergyTransfer:Zone:CB_UTILITY_F3 ZN,hourly; !- [J]
Output:Meter:Cumulative,Cooling:EnergyTransfer:Zone:CB_UTILITY_F3 ZN,hourly; !- [J]
Output:Meter,General:Cooling:EnergyTransfer:Zone:CB_UTILITY_F3 ZN,hourly; !- [J]
Output:Meter:Cumulative,General:Cooling:EnergyTransfer:Zone:CB_UTILITY_F3 ZN,hourly; !- [J]
Output:Meter,EnergyTransfer:Zone:CB_UTILITY_F4 ZN,hourly; !- [J]
Output:Meter:Cumulative,EnergyTransfer:Zone:CB_UTILITY_F4 ZN,hourly; !- [J]
Output:Meter,Heating:EnergyTransfer:Zone:CB_UTILITY_F4 ZN,hourly; !- [J]
Output:Meter:Cumulative,Heating:EnergyTransfer:Zone:CB_UTILITY_F4 ZN,hourly; !- [J]
Output:Meter,General:Heating:EnergyTransfer:Zone:CB_UTILITY_F4 ZN,hourly; !- [J]
Output:Meter:Cumulative,General:Heating:EnergyTransfer:Zone:CB_UTILITY_F4 ZN,hourly; !- [J]
Output:Meter,Cooling:EnergyTransfer:Zone:CB_UTILITY_F4 ZN,hourly; !- [J]
Output:Meter:Cumulative,Cooling:EnergyTransfer:Zone:CB_UTILITY_F4 ZN,hourly; !- [J]
Output:Meter,General:Cooling:EnergyTransfer:Zone:CB_UTILITY_F4 ZN,hourly; !- [J]
Output:Meter:Cumulative,General:Cooling:EnergyTransfer:Zone:CB_UTILITY_F4 ZN,hourly; !- [J]
Output:Meter,PlantLoopHeatingDemand:Facility,hourly; !- [J]
Output:Meter:Cumulative,PlantLoopHeatingDemand:Facility,hourly; !- [J]
Output:Meter,PlantLoopHeatingDemand:Plant,hourly; !- [J]
Output:Meter:Cumulative,PlantLoopHeatingDemand:Plant,hourly; !- [J]
Output:Meter,WaterSystems:PlantLoopHeatingDemand,hourly; !- [J]
Output:Meter:Cumulative,WaterSystems:PlantLoopHeatingDemand,hourly; !- [J]
Output:Meter,General:WaterSystems:PlantLoopHeatingDemand,hourly; !- [J]
Output:Meter:Cumulative,General:WaterSystems:PlantLoopHeatingDemand,hourly; !- [J]
Output:Meter,ElectricityPurchased:Facility,hourly; !- [J]
Output:Meter:Cumulative,ElectricityPurchased:Facility,hourly; !- [J]
Output:Meter,ElectricityPurchased:Plant,hourly; !- [J]
Output:Meter:Cumulative,ElectricityPurchased:Plant,hourly; !- [J]
Output:Meter,Cogeneration:ElectricityPurchased,hourly; !- [J]
Output:Meter:Cumulative,Cogeneration:ElectricityPurchased,hourly; !- [J]
Output:Meter,General:Cogeneration:ElectricityPurchased,hourly; !- [J]
Output:Meter:Cumulative,General:Cogeneration:ElectricityPurchased,hourly; !- [J]
Output:Meter,ElectricitySurplusSold:Facility,hourly; !- [J]
Output:Meter:Cumulative,ElectricitySurplusSold:Facility,hourly; !- [J]
Output:Meter,ElectricitySurplusSold:Plant,hourly; !- [J]
Output:Meter:Cumulative,ElectricitySurplusSold:Plant,hourly; !- [J]
Output:Meter,Cogeneration:ElectricitySurplusSold,hourly; !- [J]
Output:Meter:Cumulative,Cogeneration:ElectricitySurplusSold,hourly; !- [J]
Output:Meter,General:Cogeneration:ElectricitySurplusSold,hourly; !- [J]
Output:Meter:Cumulative,General:Cogeneration:ElectricitySurplusSold,hourly; !- [J]
Output:Meter,ElectricityNet:Facility,hourly; !- [J]
Output:Meter:Cumulative,ElectricityNet:Facility,hourly; !- [J]
Output:Meter,ElectricityNet:Plant,hourly; !- [J]
Output:Meter:Cumulative,ElectricityNet:Plant,hourly; !- [J]
Output:Meter,Cogeneration:ElectricityNet,hourly; !- [J]
Output:Meter:Cumulative,Cogeneration:ElectricityNet,hourly; !- [J]
Output:Meter,General:Cogeneration:ElectricityNet,hourly; !- [J]
Output:Meter:Cumulative,General:Cogeneration:ElectricityNet,hourly; !- [J]
Output:Meter,EnergyTransfer:HVAC,hourly; !- [J]
Output:Meter:Cumulative,EnergyTransfer:HVAC,hourly; !- [J]
Output:Meter,HeatingCoils:EnergyTransfer,hourly; !- [J]
Output:Meter:Cumulative,HeatingCoils:EnergyTransfer,hourly; !- [J]
Output:Meter,PlantLoopHeatingDemand:HVAC,hourly; !- [J]
Output:Meter:Cumulative,PlantLoopHeatingDemand:HVAC,hourly; !- [J]
Output:Meter,HeatingCoils:PlantLoopHeatingDemand,hourly; !- [J]
Output:Meter:Cumulative,HeatingCoils:PlantLoopHeatingDemand,hourly; !- [J]
Output:Meter,CoolingCoils:EnergyTransfer,hourly; !- [J]
Output:Meter:Cumulative,CoolingCoils:EnergyTransfer,hourly; !- [J]
Output:Meter,PlantLoopCoolingDemand:Facility,hourly; !- [J]
Output:Meter:Cumulative,PlantLoopCoolingDemand:Facility,hourly; !- [J]
Output:Meter,PlantLoopCoolingDemand:HVAC,hourly; !- [J]
Output:Meter:Cumulative,PlantLoopCoolingDemand:HVAC,hourly; !- [J]
Output:Meter,CoolingCoils:PlantLoopCoolingDemand,hourly; !- [J]
Output:Meter:Cumulative,CoolingCoils:PlantLoopCoolingDemand,hourly; !- [J]
Output:Meter,Electricity:HVAC,hourly; !- [J]
Output:Meter:Cumulative,Electricity:HVAC,hourly; !- [J]
Output:Meter,Fans:Electricity,hourly; !- [J]
Output:Meter:Cumulative,Fans:Electricity,hourly; !- [J]
Output:Meter,VAV System Fans:Fans:Electricity,hourly; !- [J]
Output:Meter:Cumulative,VAV System Fans:Fans:Electricity,hourly; !- [J]
Output:Meter,ExteriorLights:Electricity,hourly; !- [J]
Output:Meter:Cumulative,ExteriorLights:Electricity,hourly; !- [J]
Output:Meter,General:ExteriorLights:Electricity,hourly; !- [J]
Output:Meter:Cumulative,General:ExteriorLights:Electricity,hourly; !- [J]
Output:Meter,Electricity:Plant,hourly; !- [J]
Output:Meter:Cumulative,Electricity:Plant,hourly; !- [J]
Output:Meter,Cooling:Electricity,hourly; !- [J]
Output:Meter:Cumulative,Cooling:Electricity,hourly; !- [J]
Output:Meter,General:Cooling:Electricity,hourly; !- [J]
Output:Meter:Cumulative,General:Cooling:Electricity,hourly; !- [J]
Output:Meter,EnergyTransfer:Plant,hourly; !- [J]
Output:Meter:Cumulative,EnergyTransfer:Plant,hourly; !- [J]
Output:Meter,Chillers:EnergyTransfer,hourly; !- [J]
Output:Meter:Cumulative,Chillers:EnergyTransfer,hourly; !- [J]
Output:Meter,HeatRejection:EnergyTransfer,hourly; !- [J]
Output:Meter:Cumulative,HeatRejection:EnergyTransfer,hourly; !- [J]
Output:Meter,General:HeatRejection:EnergyTransfer,hourly; !- [J]
Output:Meter:Cumulative,General:HeatRejection:EnergyTransfer,hourly; !- [J]
Output:Meter,Water:Facility,hourly; !- [m3]
Output:Meter:Cumulative,Water:Facility,hourly; !- [m3]
Output:Meter,Water:Plant,hourly; !- [m3]
Output:Meter:Cumulative,Water:Plant,hourly; !- [m3]
Output:Meter,WaterSystems:Water,hourly; !- [m3]
Output:Meter:Cumulative,WaterSystems:Water,hourly; !- [m3]
Output:Meter,General:WaterSystems:Water,hourly; !- [m3]
Output:Meter:Cumulative,General:WaterSystems:Water,hourly; !- [m3]
Output:Meter,MainsWater:Facility,hourly; !- [m3]
Output:Meter:Cumulative,MainsWater:Facility,hourly; !- [m3]
Output:Meter,MainsWater:Plant,hourly; !- [m3]
Output:Meter:Cumulative,MainsWater:Plant,hourly; !- [m3]
Output:Meter,WaterSystems:MainsWater,hourly; !- [m3]
Output:Meter:Cumulative,WaterSystems:MainsWater,hourly; !- [m3]
Output:Meter,General:WaterSystems:MainsWater,hourly; !- [m3]
Output:Meter:Cumulative,General:WaterSystems:MainsWater,hourly; !- [m3]
Output:Meter,WaterSystems:EnergyTransfer,hourly; !- [J]
Output:Meter:Cumulative,WaterSystems:EnergyTransfer,hourly; !- [J]
Output:Meter,General:WaterSystems:EnergyTransfer,hourly; !- [J]
Output:Meter:Cumulative,General:WaterSystems:EnergyTransfer,hourly; !- [J]
Output:Meter,HeatRejection:Electricity,hourly; !- [J]
Output:Meter:Cumulative,HeatRejection:Electricity,hourly; !- [J]
Output:Meter,General:HeatRejection:Electricity,hourly; !- [J]
Output:Meter:Cumulative,General:HeatRejection:Electricity,hourly; !- [J]
Output:Meter,HeatRejection:Water,hourly; !- [m3]
Output:Meter:Cumulative,HeatRejection:Water,hourly; !- [m3]
Output:Meter,General:HeatRejection:Water,hourly; !- [m3]
Output:Meter:Cumulative,General:HeatRejection:Water,hourly; !- [m3]
Output:Meter,HeatRejection:MainsWater,hourly; !- [m3]
Output:Meter:Cumulative,HeatRejection:MainsWater,hourly; !- [m3]
Output:Meter,General:HeatRejection:MainsWater,hourly; !- [m3]
Output:Meter:Cumulative,General:HeatRejection:MainsWater,hourly; !- [m3]
Output:Meter,Boilers:EnergyTransfer,hourly; !- [J]
Output:Meter:Cumulative,Boilers:EnergyTransfer,hourly; !- [J]
Output:Meter,NaturalGas:Facility,hourly; !- [J]
Output:Meter:Cumulative,NaturalGas:Facility,hourly; !- [J]
Output:Meter,NaturalGas:Plant,hourly; !- [J]
Output:Meter:Cumulative,NaturalGas:Plant,hourly; !- [J]
Output:Meter,Heating:NaturalGas,hourly; !- [J]
Output:Meter:Cumulative,Heating:NaturalGas,hourly; !- [J]
Output:Meter,General:Heating:NaturalGas,hourly; !- [J]
Output:Meter:Cumulative,General:Heating:NaturalGas,hourly; !- [J]
Output:Meter,Heating:Electricity,hourly; !- [J]
Output:Meter:Cumulative,Heating:Electricity,hourly; !- [J]
Output:Meter,Boiler Parasitic:Heating:Electricity,hourly; !- [J]
Output:Meter:Cumulative,Boiler Parasitic:Heating:Electricity,hourly; !- [J]
Output:Meter,WaterSystems:NaturalGas,hourly; !- [J]
Output:Meter:Cumulative,WaterSystems:NaturalGas,hourly; !- [J]
Output:Meter,General:WaterSystems:NaturalGas,hourly; !- [J]
Output:Meter:Cumulative,General:WaterSystems:NaturalGas,hourly; !- [J]
Output:Meter,Pumps:Electricity,hourly; !- [J]
Output:Meter:Cumulative,Pumps:Electricity,hourly; !- [J]
Output:Meter,General:Pumps:Electricity,hourly; !- [J]
Output:Meter:Cumulative,General:Pumps:Electricity,hourly; !- [J]
Output:Meter,Carbon Equivalent:Facility,hourly; !- [kg]
Output:Meter:Cumulative,Carbon Equivalent:Facility,hourly; !- [kg]
Output:Meter,CarbonEquivalentEmissions:Carbon Equivalent,hourly; !- [kg]
Output:Meter:Cumulative,CarbonEquivalentEmissions:Carbon Equivalent,hourly; !- [kg]
